


                                __________________________________________
                               |                                          |
                               | NUMERICAL ELECTROMAGNETICS CODE (nec2++) |
                               | Translated to 'C++' in Double Precision  |
                               |        Version 1.5.1 [2014-01-02]        |
                               |__________________________________________|



                                -------- STRUCTURE SPECIFICATION --------
                                COORDINATES MUST BE INPUT IN
                                METERS OR BE SCALED TO METERS
                                BEFORE STRUCTURE INPUT IS ENDED
  WIRE                                                                                 SEG FIRST  LAST  TAG
   No:        X1         Y1         Z1         X2         Y2         Z2       RADIUS   No:   SEG   SEG  No:

     1     -0.6096     0.6096     0.0000    -0.5080     0.6096     0.0000     0.0162     1     1     1    1
     2     -0.5080     0.6096     0.0000    -0.4064     0.6096     0.0000     0.0162     1     2     2    2
     3     -0.4064     0.6096     0.0000    -0.3048     0.6096     0.0000     0.0162     1     3     3    3
     4     -0.3048     0.6096     0.0000    -0.2032     0.6096     0.0000     0.0162     1     4     4    4
     5     -0.2032     0.6096     0.0000    -0.1016     0.6096     0.0000     0.0162     1     5     5    5
     6     -0.1016     0.6096     0.0000     0.0000     0.6096     0.0000     0.0162     1     6     6    6
     7      0.0000     0.6096     0.0000     0.1016     0.6096     0.0000     0.0162     1     7     7    7
     8      0.1016     0.6096     0.0000     0.2032     0.6096     0.0000     0.0162     1     8     8    8
     9      0.2032     0.6096     0.0000     0.3048     0.6096     0.0000     0.0162     1     9     9    9
    10      0.3048     0.6096     0.0000     0.4064     0.6096     0.0000     0.0162     1    10    10   10
    11      0.4064     0.6096     0.0000     0.5080     0.6096     0.0000     0.0162     1    11    11   11
    12      0.5080     0.6096     0.0000     0.6096     0.6096     0.0000     0.0162     1    12    12   12
    13     -0.6096     0.5080     0.0000    -0.5080     0.5080     0.0000     0.0162     1    13    13   13
    14     -0.5080     0.5080     0.0000    -0.4064     0.5080     0.0000     0.0162     1    14    14   14
    15     -0.4064     0.5080     0.0000    -0.3048     0.5080     0.0000     0.0162     1    15    15   15
    16     -0.3048     0.5080     0.0000    -0.2032     0.5080     0.0000     0.0162     1    16    16   16
    17     -0.2032     0.5080     0.0000    -0.1016     0.5080     0.0000     0.0162     1    17    17   17
    18     -0.1016     0.5080     0.0000     0.0000     0.5080     0.0000     0.0162     1    18    18   18
    19      0.0000     0.5080     0.0000     0.1016     0.5080     0.0000     0.0162     1    19    19   19
    20      0.1016     0.5080     0.0000     0.2032     0.5080     0.0000     0.0162     1    20    20   20
    21      0.2032     0.5080     0.0000     0.3048     0.5080     0.0000     0.0162     1    21    21   21
    22      0.3048     0.5080     0.0000     0.4064     0.5080     0.0000     0.0162     1    22    22   22
    23      0.4064     0.5080     0.0000     0.5080     0.5080     0.0000     0.0162     1    23    23   23
    24      0.5080     0.5080     0.0000     0.6096     0.5080     0.0000     0.0162     1    24    24   24
    25     -0.6096     0.4064     0.0000    -0.5080     0.4064     0.0000     0.0162     1    25    25   25
    26     -0.5080     0.4064     0.0000    -0.4064     0.4064     0.0000     0.0162     1    26    26   26
    27     -0.4064     0.4064     0.0000    -0.3048     0.4064     0.0000     0.0162     1    27    27   27
    28     -0.3048     0.4064     0.0000    -0.2032     0.4064     0.0000     0.0162     1    28    28   28
    29     -0.2032     0.4064     0.0000    -0.1016     0.4064     0.0000     0.0162     1    29    29   29
    30     -0.1016     0.4064     0.0000     0.0000     0.4064     0.0000     0.0162     1    30    30   30
    31      0.0000     0.4064     0.0000     0.1016     0.4064     0.0000     0.0162     1    31    31   31
    32      0.1016     0.4064     0.0000     0.2032     0.4064     0.0000     0.0162     1    32    32   32
    33      0.2032     0.4064     0.0000     0.3048     0.4064     0.0000     0.0162     1    33    33   33
    34      0.3048     0.4064     0.0000     0.4064     0.4064     0.0000     0.0162     1    34    34   34
    35      0.4064     0.4064     0.0000     0.5080     0.4064     0.0000     0.0162     1    35    35   35
    36      0.5080     0.4064     0.0000     0.6096     0.4064     0.0000     0.0162     1    36    36   36
    37     -0.6096     0.3048     0.0000    -0.5080     0.3048     0.0000     0.0162     1    37    37   37
    38     -0.5080     0.3048     0.0000    -0.4064     0.3048     0.0000     0.0162     1    38    38   38
    39     -0.4064     0.3048     0.0000    -0.3048     0.3048     0.0000     0.0162     1    39    39   39
    40     -0.3048     0.3048     0.0000    -0.2032     0.3048     0.0000     0.0162     1    40    40   40
    41     -0.2032     0.3048     0.0000    -0.1016     0.3048     0.0000     0.0162     1    41    41   41
    42     -0.1016     0.3048     0.0000     0.0000     0.3048     0.0000     0.0162     1    42    42   42
    43      0.0000     0.3048     0.0000     0.1016     0.3048     0.0000     0.0162     1    43    43   43
    44      0.1016     0.3048     0.0000     0.2032     0.3048     0.0000     0.0162     1    44    44   44
    45      0.2032     0.3048     0.0000     0.3048     0.3048     0.0000     0.0162     1    45    45   45
    46      0.3048     0.3048     0.0000     0.4064     0.3048     0.0000     0.0162     1    46    46   46
    47      0.4064     0.3048     0.0000     0.5080     0.3048     0.0000     0.0162     1    47    47   47
    48      0.5080     0.3048     0.0000     0.6096     0.3048     0.0000     0.0162     1    48    48   48
    49     -0.6096     0.2032     0.0000    -0.5080     0.2032     0.0000     0.0162     1    49    49   49
    50     -0.5080     0.2032     0.0000    -0.4064     0.2032     0.0000     0.0162     1    50    50   50
    51     -0.4064     0.2032     0.0000    -0.3048     0.2032     0.0000     0.0162     1    51    51   51
    52     -0.3048     0.2032     0.0000    -0.2032     0.2032     0.0000     0.0162     1    52    52   52
    53     -0.2032     0.2032     0.0000    -0.1016     0.2032     0.0000     0.0162     1    53    53   53
    54     -0.1016     0.2032     0.0000     0.0000     0.2032     0.0000     0.0162     1    54    54   54
    55      0.0000     0.2032     0.0000     0.1016     0.2032     0.0000     0.0162     1    55    55   55
    56      0.1016     0.2032     0.0000     0.2032     0.2032     0.0000     0.0162     1    56    56   56
    57      0.2032     0.2032     0.0000     0.3048     0.2032     0.0000     0.0162     1    57    57   57
    58      0.3048     0.2032     0.0000     0.4064     0.2032     0.0000     0.0162     1    58    58   58
    59      0.4064     0.2032     0.0000     0.5080     0.2032     0.0000     0.0162     1    59    59   59
    60      0.5080     0.2032     0.0000     0.6096     0.2032     0.0000     0.0162     1    60    60   60
    61     -0.6096     0.1016     0.0000    -0.5080     0.1016     0.0000     0.0162     1    61    61   61
    62     -0.5080     0.1016     0.0000    -0.4064     0.1016     0.0000     0.0162     1    62    62   62
    63     -0.4064     0.1016     0.0000    -0.3048     0.1016     0.0000     0.0162     1    63    63   63
    64     -0.3048     0.1016     0.0000    -0.2032     0.1016     0.0000     0.0162     1    64    64   64
    65     -0.2032     0.1016     0.0000    -0.1016     0.1016     0.0000     0.0162     1    65    65   65
    66     -0.1016     0.1016     0.0000     0.0000     0.1016     0.0000     0.0162     1    66    66   66
    67      0.0000     0.1016     0.0000     0.1016     0.1016     0.0000     0.0162     1    67    67   67
    68      0.1016     0.1016     0.0000     0.2032     0.1016     0.0000     0.0162     1    68    68   68
    69      0.2032     0.1016     0.0000     0.3048     0.1016     0.0000     0.0162     1    69    69   69
    70      0.3048     0.1016     0.0000     0.4064     0.1016     0.0000     0.0162     1    70    70   70
    71      0.4064     0.1016     0.0000     0.5080     0.1016     0.0000     0.0162     1    71    71   71
    72      0.5080     0.1016     0.0000     0.6096     0.1016     0.0000     0.0162     1    72    72   72
    73     -0.6096     0.0000     0.0000    -0.5080     0.0000     0.0000     0.0162     1    73    73   73
    74     -0.5080     0.0000     0.0000    -0.4064     0.0000     0.0000     0.0162     1    74    74   74
    75     -0.4064     0.0000     0.0000    -0.3048     0.0000     0.0000     0.0162     1    75    75   75
    76     -0.3048     0.0000     0.0000    -0.2032     0.0000     0.0000     0.0162     1    76    76   76
    77     -0.2032     0.0000     0.0000    -0.1016     0.0000     0.0000     0.0162     1    77    77   77
    78     -0.1016     0.0000     0.0000     0.0000     0.0000     0.0000     0.0162     1    78    78   78
    79      0.0000     0.0000     0.0000     0.1016     0.0000     0.0000     0.0162     1    79    79   79
    80      0.1016     0.0000     0.0000     0.2032     0.0000     0.0000     0.0162     1    80    80   80
    81      0.2032     0.0000     0.0000     0.3048     0.0000     0.0000     0.0162     1    81    81   81
    82      0.3048     0.0000     0.0000     0.4064     0.0000     0.0000     0.0162     1    82    82   82
    83      0.4064     0.0000     0.0000     0.5080     0.0000     0.0000     0.0162     1    83    83   83
    84      0.5080     0.0000     0.0000     0.6096     0.0000     0.0000     0.0162     1    84    84   84
    85     -0.6096    -0.1016     0.0000    -0.5080    -0.1016     0.0000     0.0162     1    85    85   85
    86     -0.5080    -0.1016     0.0000    -0.4064    -0.1016     0.0000     0.0162     1    86    86   86
    87     -0.4064    -0.1016     0.0000    -0.3048    -0.1016     0.0000     0.0162     1    87    87   87
    88     -0.3048    -0.1016     0.0000    -0.2032    -0.1016     0.0000     0.0162     1    88    88   88
    89     -0.2032    -0.1016     0.0000    -0.1016    -0.1016     0.0000     0.0162     1    89    89   89
    90     -0.1016    -0.1016     0.0000     0.0000    -0.1016     0.0000     0.0162     1    90    90   90
    91      0.0000    -0.1016     0.0000     0.1016    -0.1016     0.0000     0.0162     1    91    91   91
    92      0.1016    -0.1016     0.0000     0.2032    -0.1016     0.0000     0.0162     1    92    92   92
    93      0.2032    -0.1016     0.0000     0.3048    -0.1016     0.0000     0.0162     1    93    93   93
    94      0.3048    -0.1016     0.0000     0.4064    -0.1016     0.0000     0.0162     1    94    94   94
    95      0.4064    -0.1016     0.0000     0.5080    -0.1016     0.0000     0.0162     1    95    95   95
    96      0.5080    -0.1016     0.0000     0.6096    -0.1016     0.0000     0.0162     1    96    96   96
    97     -0.6096    -0.2032     0.0000    -0.5080    -0.2032     0.0000     0.0162     1    97    97   97
    98     -0.5080    -0.2032     0.0000    -0.4064    -0.2032     0.0000     0.0162     1    98    98   98
    99     -0.4064    -0.2032     0.0000    -0.3048    -0.2032     0.0000     0.0162     1    99    99   99
   100     -0.3048    -0.2032     0.0000    -0.2032    -0.2032     0.0000     0.0162     1   100   100  100
   101     -0.2032    -0.2032     0.0000    -0.1016    -0.2032     0.0000     0.0162     1   101   101  101
   102     -0.1016    -0.2032     0.0000     0.0000    -0.2032     0.0000     0.0162     1   102   102  102
   103      0.0000    -0.2032     0.0000     0.1016    -0.2032     0.0000     0.0162     1   103   103  103
   104      0.1016    -0.2032     0.0000     0.2032    -0.2032     0.0000     0.0162     1   104   104  104
   105      0.2032    -0.2032     0.0000     0.3048    -0.2032     0.0000     0.0162     1   105   105  105
   106      0.3048    -0.2032     0.0000     0.4064    -0.2032     0.0000     0.0162     1   106   106  106
   107      0.4064    -0.2032     0.0000     0.5080    -0.2032     0.0000     0.0162     1   107   107  107
   108      0.5080    -0.2032     0.0000     0.6096    -0.2032     0.0000     0.0162     1   108   108  108
   109     -0.6096    -0.3048     0.0000    -0.5080    -0.3048     0.0000     0.0162     1   109   109  109
   110     -0.5080    -0.3048     0.0000    -0.4064    -0.3048     0.0000     0.0162     1   110   110  110
   111     -0.4064    -0.3048     0.0000    -0.3048    -0.3048     0.0000     0.0162     1   111   111  111
   112     -0.3048    -0.3048     0.0000    -0.2032    -0.3048     0.0000     0.0162     1   112   112  112
   113     -0.2032    -0.3048     0.0000    -0.1016    -0.3048     0.0000     0.0162     1   113   113  113
   114     -0.1016    -0.3048     0.0000     0.0000    -0.3048     0.0000     0.0162     1   114   114  114
   115      0.0000    -0.3048     0.0000     0.1016    -0.3048     0.0000     0.0162     1   115   115  115
   116      0.1016    -0.3048     0.0000     0.2032    -0.3048     0.0000     0.0162     1   116   116  116
   117      0.2032    -0.3048     0.0000     0.3048    -0.3048     0.0000     0.0162     1   117   117  117
   118      0.3048    -0.3048     0.0000     0.4064    -0.3048     0.0000     0.0162     1   118   118  118
   119      0.4064    -0.3048     0.0000     0.5080    -0.3048     0.0000     0.0162     1   119   119  119
   120      0.5080    -0.3048     0.0000     0.6096    -0.3048     0.0000     0.0162     1   120   120  120
   121     -0.6096    -0.4064     0.0000    -0.5080    -0.4064     0.0000     0.0162     1   121   121  121
   122     -0.5080    -0.4064     0.0000    -0.4064    -0.4064     0.0000     0.0162     1   122   122  122
   123     -0.4064    -0.4064     0.0000    -0.3048    -0.4064     0.0000     0.0162     1   123   123  123
   124     -0.3048    -0.4064     0.0000    -0.2032    -0.4064     0.0000     0.0162     1   124   124  124
   125     -0.2032    -0.4064     0.0000    -0.1016    -0.4064     0.0000     0.0162     1   125   125  125
   126     -0.1016    -0.4064     0.0000     0.0000    -0.4064     0.0000     0.0162     1   126   126  126
   127      0.0000    -0.4064     0.0000     0.1016    -0.4064     0.0000     0.0162     1   127   127  127
   128      0.1016    -0.4064     0.0000     0.2032    -0.4064     0.0000     0.0162     1   128   128  128
   129      0.2032    -0.4064     0.0000     0.3048    -0.4064     0.0000     0.0162     1   129   129  129
   130      0.3048    -0.4064     0.0000     0.4064    -0.4064     0.0000     0.0162     1   130   130  130
   131      0.4064    -0.4064     0.0000     0.5080    -0.4064     0.0000     0.0162     1   131   131  131
   132      0.5080    -0.4064     0.0000     0.6096    -0.4064     0.0000     0.0162     1   132   132  132
   133     -0.6096    -0.5080     0.0000    -0.5080    -0.5080     0.0000     0.0162     1   133   133  133
   134     -0.5080    -0.5080     0.0000    -0.4064    -0.5080     0.0000     0.0162     1   134   134  134
   135     -0.4064    -0.5080     0.0000    -0.3048    -0.5080     0.0000     0.0162     1   135   135  135
   136     -0.3048    -0.5080     0.0000    -0.2032    -0.5080     0.0000     0.0162     1   136   136  136
   137     -0.2032    -0.5080     0.0000    -0.1016    -0.5080     0.0000     0.0162     1   137   137  137
   138     -0.1016    -0.5080     0.0000     0.0000    -0.5080     0.0000     0.0162     1   138   138  138
   139      0.0000    -0.5080     0.0000     0.1016    -0.5080     0.0000     0.0162     1   139   139  139
   140      0.1016    -0.5080     0.0000     0.2032    -0.5080     0.0000     0.0162     1   140   140  140
   141      0.2032    -0.5080     0.0000     0.3048    -0.5080     0.0000     0.0162     1   141   141  141
   142      0.3048    -0.5080     0.0000     0.4064    -0.5080     0.0000     0.0162     1   142   142  142
   143      0.4064    -0.5080     0.0000     0.5080    -0.5080     0.0000     0.0162     1   143   143  143
   144      0.5080    -0.5080     0.0000     0.6096    -0.5080     0.0000     0.0162     1   144   144  144
   145     -0.6096    -0.6096     0.0000    -0.5080    -0.6096     0.0000     0.0162     1   145   145  145
   146     -0.5080    -0.6096     0.0000    -0.4064    -0.6096     0.0000     0.0162     1   146   146  146
   147     -0.4064    -0.6096     0.0000    -0.3048    -0.6096     0.0000     0.0162     1   147   147  147
   148     -0.3048    -0.6096     0.0000    -0.2032    -0.6096     0.0000     0.0162     1   148   148  148
   149     -0.2032    -0.6096     0.0000    -0.1016    -0.6096     0.0000     0.0162     1   149   149  149
   150     -0.1016    -0.6096     0.0000     0.0000    -0.6096     0.0000     0.0162     1   150   150  150
   151      0.0000    -0.6096     0.0000     0.1016    -0.6096     0.0000     0.0162     1   151   151  151
   152      0.1016    -0.6096     0.0000     0.2032    -0.6096     0.0000     0.0162     1   152   152  152
   153      0.2032    -0.6096     0.0000     0.3048    -0.6096     0.0000     0.0162     1   153   153  153
   154      0.3048    -0.6096     0.0000     0.4064    -0.6096     0.0000     0.0162     1   154   154  154
   155      0.4064    -0.6096     0.0000     0.5080    -0.6096     0.0000     0.0162     1   155   155  155
   156      0.5080    -0.6096     0.0000     0.6096    -0.6096     0.0000     0.0162     1   156   156  156
   157     -0.6096     0.6096     0.0000    -0.6096     0.5080     0.0000     0.0162     1   157   157  157
   158     -0.6096     0.5080     0.0000    -0.6096     0.4064     0.0000     0.0162     1   158   158  158
   159     -0.6096     0.4064     0.0000    -0.6096     0.3048     0.0000     0.0162     1   159   159  159
   160     -0.6096     0.3048     0.0000    -0.6096     0.2032     0.0000     0.0162     1   160   160  160
   161     -0.6096     0.2032     0.0000    -0.6096     0.1016     0.0000     0.0162     1   161   161  161
   162     -0.6096     0.1016     0.0000    -0.6096     0.0000     0.0000     0.0162     1   162   162  162
   163     -0.6096     0.0000     0.0000    -0.6096    -0.1016     0.0000     0.0162     1   163   163  163
   164     -0.6096    -0.1016     0.0000    -0.6096    -0.2032     0.0000     0.0162     1   164   164  164
   165     -0.6096    -0.2032     0.0000    -0.6096    -0.3048     0.0000     0.0162     1   165   165  165
   166     -0.6096    -0.3048     0.0000    -0.6096    -0.4064     0.0000     0.0162     1   166   166  166
   167     -0.6096    -0.4064     0.0000    -0.6096    -0.5080     0.0000     0.0162     1   167   167  167
   168     -0.6096    -0.5080     0.0000    -0.6096    -0.6096     0.0000     0.0162     1   168   168  168
   169     -0.5080     0.6096     0.0000    -0.5080     0.5080     0.0000     0.0162     1   169   169  169
   170     -0.5080     0.5080     0.0000    -0.5080     0.4064     0.0000     0.0162     1   170   170  170
   171     -0.5080     0.4064     0.0000    -0.5080     0.3048     0.0000     0.0162     1   171   171  171
   172     -0.5080     0.3048     0.0000    -0.5080     0.2032     0.0000     0.0162     1   172   172  172
   173     -0.5080     0.2032     0.0000    -0.5080     0.1016     0.0000     0.0162     1   173   173  173
   174     -0.5080     0.1016     0.0000    -0.5080     0.0000     0.0000     0.0162     1   174   174  174
   175     -0.5080     0.0000     0.0000    -0.5080    -0.1016     0.0000     0.0162     1   175   175  175
   176     -0.5080    -0.1016     0.0000    -0.5080    -0.2032     0.0000     0.0162     1   176   176  176
   177     -0.5080    -0.2032     0.0000    -0.5080    -0.3048     0.0000     0.0162     1   177   177  177
   178     -0.5080    -0.3048     0.0000    -0.5080    -0.4064     0.0000     0.0162     1   178   178  178
   179     -0.5080    -0.4064     0.0000    -0.5080    -0.5080     0.0000     0.0162     1   179   179  179
   180     -0.5080    -0.5080     0.0000    -0.5080    -0.6096     0.0000     0.0162     1   180   180  180
   181     -0.4064     0.6096     0.0000    -0.4064     0.5080     0.0000     0.0162     1   181   181  181
   182     -0.4064     0.5080     0.0000    -0.4064     0.4064     0.0000     0.0162     1   182   182  182
   183     -0.4064     0.4064     0.0000    -0.4064     0.3048     0.0000     0.0162     1   183   183  183
   184     -0.4064     0.3048     0.0000    -0.4064     0.2032     0.0000     0.0162     1   184   184  184
   185     -0.4064     0.2032     0.0000    -0.4064     0.1016     0.0000     0.0162     1   185   185  185
   186     -0.4064     0.1016     0.0000    -0.4064     0.0000     0.0000     0.0162     1   186   186  186
   187     -0.4064     0.0000     0.0000    -0.4064    -0.1016     0.0000     0.0162     1   187   187  187
   188     -0.4064    -0.1016     0.0000    -0.4064    -0.2032     0.0000     0.0162     1   188   188  188
   189     -0.4064    -0.2032     0.0000    -0.4064    -0.3048     0.0000     0.0162     1   189   189  189
   190     -0.4064    -0.3048     0.0000    -0.4064    -0.4064     0.0000     0.0162     1   190   190  190
   191     -0.4064    -0.4064     0.0000    -0.4064    -0.5080     0.0000     0.0162     1   191   191  191
   192     -0.4064    -0.5080     0.0000    -0.4064    -0.6096     0.0000     0.0162     1   192   192  192
   193     -0.3048     0.6096     0.0000    -0.3048     0.5080     0.0000     0.0162     1   193   193  193
   194     -0.3048     0.5080     0.0000    -0.3048     0.4064     0.0000     0.0162     1   194   194  194
   195     -0.3048     0.4064     0.0000    -0.3048     0.3048     0.0000     0.0162     1   195   195  195
   196     -0.3048     0.3048     0.0000    -0.3048     0.2032     0.0000     0.0162     1   196   196  196
   197     -0.3048     0.2032     0.0000    -0.3048     0.1016     0.0000     0.0162     1   197   197  197
   198     -0.3048     0.1016     0.0000    -0.3048     0.0000     0.0000     0.0162     1   198   198  198
   199     -0.3048     0.0000     0.0000    -0.3048    -0.1016     0.0000     0.0162     1   199   199  199
   200     -0.3048    -0.1016     0.0000    -0.3048    -0.2032     0.0000     0.0162     1   200   200  200
   201     -0.3048    -0.2032     0.0000    -0.3048    -0.3048     0.0000     0.0162     1   201   201  201
   202     -0.3048    -0.3048     0.0000    -0.3048    -0.4064     0.0000     0.0162     1   202   202  202
   203     -0.3048    -0.4064     0.0000    -0.3048    -0.5080     0.0000     0.0162     1   203   203  203
   204     -0.3048    -0.5080     0.0000    -0.3048    -0.6096     0.0000     0.0162     1   204   204  204
   205     -0.2032     0.6096     0.0000    -0.2032     0.5080     0.0000     0.0162     1   205   205  205
   206     -0.2032     0.5080     0.0000    -0.2032     0.4064     0.0000     0.0162     1   206   206  206
   207     -0.2032     0.4064     0.0000    -0.2032     0.3048     0.0000     0.0162     1   207   207  207
   208     -0.2032     0.3048     0.0000    -0.2032     0.2032     0.0000     0.0162     1   208   208  208
   209     -0.2032     0.2032     0.0000    -0.2032     0.1016     0.0000     0.0162     1   209   209  209
   210     -0.2032     0.1016     0.0000    -0.2032     0.0000     0.0000     0.0162     1   210   210  210
   211     -0.2032     0.0000     0.0000    -0.2032    -0.1016     0.0000     0.0162     1   211   211  211
   212     -0.2032    -0.1016     0.0000    -0.2032    -0.2032     0.0000     0.0162     1   212   212  212
   213     -0.2032    -0.2032     0.0000    -0.2032    -0.3048     0.0000     0.0162     1   213   213  213
   214     -0.2032    -0.3048     0.0000    -0.2032    -0.4064     0.0000     0.0162     1   214   214  214
   215     -0.2032    -0.4064     0.0000    -0.2032    -0.5080     0.0000     0.0162     1   215   215  215
   216     -0.2032    -0.5080     0.0000    -0.2032    -0.6096     0.0000     0.0162     1   216   216  216
   217     -0.1016     0.6096     0.0000    -0.1016     0.5080     0.0000     0.0162     1   217   217  217
   218     -0.1016     0.5080     0.0000    -0.1016     0.4064     0.0000     0.0162     1   218   218  218
   219     -0.1016     0.4064     0.0000    -0.1016     0.3048     0.0000     0.0162     1   219   219  219
   220     -0.1016     0.3048     0.0000    -0.1016     0.2032     0.0000     0.0162     1   220   220  220
   221     -0.1016     0.2032     0.0000    -0.1016     0.1016     0.0000     0.0162     1   221   221  221
   222     -0.1016     0.1016     0.0000    -0.1016     0.0000     0.0000     0.0162     1   222   222  222
   223     -0.1016     0.0000     0.0000    -0.1016    -0.1016     0.0000     0.0162     1   223   223  223
   224     -0.1016    -0.1016     0.0000    -0.1016    -0.2032     0.0000     0.0162     1   224   224  224
   225     -0.1016    -0.2032     0.0000    -0.1016    -0.3048     0.0000     0.0162     1   225   225  225
   226     -0.1016    -0.3048     0.0000    -0.1016    -0.4064     0.0000     0.0162     1   226   226  226
   227     -0.1016    -0.4064     0.0000    -0.1016    -0.5080     0.0000     0.0162     1   227   227  227
   228     -0.1016    -0.5080     0.0000    -0.1016    -0.6096     0.0000     0.0162     1   228   228  228
   229      0.0000     0.6096     0.0000     0.0000     0.5080     0.0000     0.0162     1   229   229  229
   230      0.0000     0.5080     0.0000     0.0000     0.4064     0.0000     0.0162     1   230   230  230
   231      0.0000     0.4064     0.0000     0.0000     0.3048     0.0000     0.0162     1   231   231  231
   232      0.0000     0.3048     0.0000     0.0000     0.2032     0.0000     0.0162     1   232   232  232
   233      0.0000     0.2032     0.0000     0.0000     0.1016     0.0000     0.0162     1   233   233  233
   234      0.0000     0.1016     0.0000     0.0000     0.0000     0.0000     0.0162     1   234   234  234
   235      0.0000     0.0000     0.0000     0.0000    -0.1016     0.0000     0.0162     1   235   235  235
   236      0.0000    -0.1016     0.0000     0.0000    -0.2032     0.0000     0.0162     1   236   236  236
   237      0.0000    -0.2032     0.0000     0.0000    -0.3048     0.0000     0.0162     1   237   237  237
   238      0.0000    -0.3048     0.0000     0.0000    -0.4064     0.0000     0.0162     1   238   238  238
   239      0.0000    -0.4064     0.0000     0.0000    -0.5080     0.0000     0.0162     1   239   239  239
   240      0.0000    -0.5080     0.0000     0.0000    -0.6096     0.0000     0.0162     1   240   240  240
   241      0.1016     0.6096     0.0000     0.1016     0.5080     0.0000     0.0162     1   241   241  241
   242      0.1016     0.5080     0.0000     0.1016     0.4064     0.0000     0.0162     1   242   242  242
   243      0.1016     0.4064     0.0000     0.1016     0.3048     0.0000     0.0162     1   243   243  243
   244      0.1016     0.3048     0.0000     0.1016     0.2032     0.0000     0.0162     1   244   244  244
   245      0.1016     0.2032     0.0000     0.1016     0.1016     0.0000     0.0162     1   245   245  245
   246      0.1016     0.1016     0.0000     0.1016     0.0000     0.0000     0.0162     1   246   246  246
   247      0.1016     0.0000     0.0000     0.1016    -0.1016     0.0000     0.0162     1   247   247  247
   248      0.1016    -0.1016     0.0000     0.1016    -0.2032     0.0000     0.0162     1   248   248  248
   249      0.1016    -0.2032     0.0000     0.1016    -0.3048     0.0000     0.0162     1   249   249  249
   250      0.1016    -0.3048     0.0000     0.1016    -0.4064     0.0000     0.0162     1   250   250  250
   251      0.1016    -0.4064     0.0000     0.1016    -0.5080     0.0000     0.0162     1   251   251  251
   252      0.1016    -0.5080     0.0000     0.1016    -0.6096     0.0000     0.0162     1   252   252  252
   253      0.2032     0.6096     0.0000     0.2032     0.5080     0.0000     0.0162     1   253   253  253
   254      0.2032     0.5080     0.0000     0.2032     0.4064     0.0000     0.0162     1   254   254  254
   255      0.2032     0.4064     0.0000     0.2032     0.3048     0.0000     0.0162     1   255   255  255
   256      0.2032     0.3048     0.0000     0.2032     0.2032     0.0000     0.0162     1   256   256  256
   257      0.2032     0.2032     0.0000     0.2032     0.1016     0.0000     0.0162     1   257   257  257
   258      0.2032     0.1016     0.0000     0.2032     0.0000     0.0000     0.0162     1   258   258  258
   259      0.2032     0.0000     0.0000     0.2032    -0.1016     0.0000     0.0162     1   259   259  259
   260      0.2032    -0.1016     0.0000     0.2032    -0.2032     0.0000     0.0162     1   260   260  260
   261      0.2032    -0.2032     0.0000     0.2032    -0.3048     0.0000     0.0162     1   261   261  261
   262      0.2032    -0.3048     0.0000     0.2032    -0.4064     0.0000     0.0162     1   262   262  262
   263      0.2032    -0.4064     0.0000     0.2032    -0.5080     0.0000     0.0162     1   263   263  263
   264      0.2032    -0.5080     0.0000     0.2032    -0.6096     0.0000     0.0162     1   264   264  264
   265      0.3048     0.6096     0.0000     0.3048     0.5080     0.0000     0.0162     1   265   265  265
   266      0.3048     0.5080     0.0000     0.3048     0.4064     0.0000     0.0162     1   266   266  266
   267      0.3048     0.4064     0.0000     0.3048     0.3048     0.0000     0.0162     1   267   267  267
   268      0.3048     0.3048     0.0000     0.3048     0.2032     0.0000     0.0162     1   268   268  268
   269      0.3048     0.2032     0.0000     0.3048     0.1016     0.0000     0.0162     1   269   269  269
   270      0.3048     0.1016     0.0000     0.3048     0.0000     0.0000     0.0162     1   270   270  270
   271      0.3048     0.0000     0.0000     0.3048    -0.1016     0.0000     0.0162     1   271   271  271
   272      0.3048    -0.1016     0.0000     0.3048    -0.2032     0.0000     0.0162     1   272   272  272
   273      0.3048    -0.2032     0.0000     0.3048    -0.3048     0.0000     0.0162     1   273   273  273
   274      0.3048    -0.3048     0.0000     0.3048    -0.4064     0.0000     0.0162     1   274   274  274
   275      0.3048    -0.4064     0.0000     0.3048    -0.5080     0.0000     0.0162     1   275   275  275
   276      0.3048    -0.5080     0.0000     0.3048    -0.6096     0.0000     0.0162     1   276   276  276
   277      0.4064     0.6096     0.0000     0.4064     0.5080     0.0000     0.0162     1   277   277  277
   278      0.4064     0.5080     0.0000     0.4064     0.4064     0.0000     0.0162     1   278   278  278
   279      0.4064     0.4064     0.0000     0.4064     0.3048     0.0000     0.0162     1   279   279  279
   280      0.4064     0.3048     0.0000     0.4064     0.2032     0.0000     0.0162     1   280   280  280
   281      0.4064     0.2032     0.0000     0.4064     0.1016     0.0000     0.0162     1   281   281  281
   282      0.4064     0.1016     0.0000     0.4064     0.0000     0.0000     0.0162     1   282   282  282
   283      0.4064     0.0000     0.0000     0.4064    -0.1016     0.0000     0.0162     1   283   283  283
   284      0.4064    -0.1016     0.0000     0.4064    -0.2032     0.0000     0.0162     1   284   284  284
   285      0.4064    -0.2032     0.0000     0.4064    -0.3048     0.0000     0.0162     1   285   285  285
   286      0.4064    -0.3048     0.0000     0.4064    -0.4064     0.0000     0.0162     1   286   286  286
   287      0.4064    -0.4064     0.0000     0.4064    -0.5080     0.0000     0.0162     1   287   287  287
   288      0.4064    -0.5080     0.0000     0.4064    -0.6096     0.0000     0.0162     1   288   288  288
   289      0.5080     0.6096     0.0000     0.5080     0.5080     0.0000     0.0162     1   289   289  289
   290      0.5080     0.5080     0.0000     0.5080     0.4064     0.0000     0.0162     1   290   290  290
   291      0.5080     0.4064     0.0000     0.5080     0.3048     0.0000     0.0162     1   291   291  291
   292      0.5080     0.3048     0.0000     0.5080     0.2032     0.0000     0.0162     1   292   292  292
   293      0.5080     0.2032     0.0000     0.5080     0.1016     0.0000     0.0162     1   293   293  293
   294      0.5080     0.1016     0.0000     0.5080     0.0000     0.0000     0.0162     1   294   294  294
   295      0.5080     0.0000     0.0000     0.5080    -0.1016     0.0000     0.0162     1   295   295  295
   296      0.5080    -0.1016     0.0000     0.5080    -0.2032     0.0000     0.0162     1   296   296  296
   297      0.5080    -0.2032     0.0000     0.5080    -0.3048     0.0000     0.0162     1   297   297  297
   298      0.5080    -0.3048     0.0000     0.5080    -0.4064     0.0000     0.0162     1   298   298  298
   299      0.5080    -0.4064     0.0000     0.5080    -0.5080     0.0000     0.0162     1   299   299  299
   300      0.5080    -0.5080     0.0000     0.5080    -0.6096     0.0000     0.0162     1   300   300  300
   301      0.6096     0.6096     0.0000     0.6096     0.5080     0.0000     0.0162     1   301   301  301
   302      0.6096     0.5080     0.0000     0.6096     0.4064     0.0000     0.0162     1   302   302  302
   303      0.6096     0.4064     0.0000     0.6096     0.3048     0.0000     0.0162     1   303   303  303
   304      0.6096     0.3048     0.0000     0.6096     0.2032     0.0000     0.0162     1   304   304  304
   305      0.6096     0.2032     0.0000     0.6096     0.1016     0.0000     0.0162     1   305   305  305
   306      0.6096     0.1016     0.0000     0.6096     0.0000     0.0000     0.0162     1   306   306  306
   307      0.6096     0.0000     0.0000     0.6096    -0.1016     0.0000     0.0162     1   307   307  307
   308      0.6096    -0.1016     0.0000     0.6096    -0.2032     0.0000     0.0162     1   308   308  308
   309      0.6096    -0.2032     0.0000     0.6096    -0.3048     0.0000     0.0162     1   309   309  309
   310      0.6096    -0.3048     0.0000     0.6096    -0.4064     0.0000     0.0162     1   310   310  310
   311      0.6096    -0.4064     0.0000     0.6096    -0.5080     0.0000     0.0162     1   311   311  311
   312      0.6096    -0.5080     0.0000     0.6096    -0.6096     0.0000     0.0162     1   312   312  312
   313      0.1016    -0.2032     0.0000     0.1016    -0.2032     0.4800     0.0010     8   313   320  313
   314      0.2032     0.6096     0.2500     0.2032     0.6096     0.4800     0.0010     8   321   328  314
   315      0.2032     0.6096     0.0200     0.2032     0.6096     0.2500     0.0010     8   329   336  315
     STRUCTURE SCALED BY FACTOR:    1.00000

     TOTAL SEGMENTS USED: 336   SEGMENTS IN A SYMMETRIC CELL: 336   SYMMETRY FLAG: 0

    ---------- MULTIPLE WIRE JUNCTIONS ----------
    JUNCTION  SEGMENTS (- FOR END 1, + FOR END 2)
       1          1   -2 -169
       2          2   -3 -181
       3          3   -4 -193
       4          4   -5 -205
       5          5   -6 -217
       6          6   -7 -229
       7          7   -8 -241
       8          8   -9 -253
       9          9  -10 -265
      10         10  -11 -277
      11         11  -12 -289
      12        -13  157 -158
      13         13  -14  169 -170
      14         14  -15  181 -182
      15         15  -16  193 -194
      16         16  -17  205 -206
      17         17  -18  217 -218
      18         18  -19  229 -230
      19         19  -20  241 -242
      20         20  -21  253 -254
      21         21  -22  265 -266
      22         22  -23  277 -278
      23         23  -24  289 -290
      24         24  301 -302
      25        -25  158 -159
      26         25  -26  170 -171
      27         26  -27  182 -183
      28         27  -28  194 -195
      29         28  -29  206 -207
      30         29  -30  218 -219
      31         30  -31  230 -231
      32         31  -32  242 -243
      33         32  -33  254 -255
      34         33  -34  266 -267
      35         34  -35  278 -279
      36         35  -36  290 -291
      37         36  302 -303
      38        -37  159 -160
      39         37  -38  171 -172
      40         38  -39  183 -184
      41         39  -40  195 -196
      42         40  -41  207 -208
      43         41  -42  219 -220
      44         42  -43  231 -232
      45         43  -44  243 -244
      46         44  -45  255 -256
      47         45  -46  267 -268
      48         46  -47  279 -280
      49         47  -48  291 -292
      50         48  303 -304
      51        -49  160 -161
      52         49  -50  172 -173
      53         50  -51  184 -185
      54         51  -52  196 -197
      55         52  -53  208 -209
      56         53  -54  220 -221
      57         54  -55  232 -233
      58         55  -56  244 -245
      59         56  -57  256 -257
      60         57  -58  268 -269
      61         58  -59  280 -281
      62         59  -60  292 -293
      63         60  304 -305
      64        -61  161 -162
      65         61  -62  173 -174
      66         62  -63  185 -186
      67         63  -64  197 -198
      68         64  -65  209 -210
      69         65  -66  221 -222
      70         66  -67  233 -234
      71         67  -68  245 -246
      72         68  -69  257 -258
      73         69  -70  269 -270
      74         70  -71  281 -282
      75         71  -72  293 -294
      76         72  305 -306
      77        -73  162 -163
      78         73  -74  174 -175
      79         74  -75  186 -187
      80         75  -76  198 -199
      81         76  -77  210 -211
      82         77  -78  222 -223
      83         78  -79  234 -235
      84         79  -80  246 -247
      85         80  -81  258 -259
      86         81  -82  270 -271
      87         82  -83  282 -283
      88         83  -84  294 -295
      89         84  306 -307
      90        -85  163 -164
      91         85  -86  175 -176
      92         86  -87  187 -188
      93         87  -88  199 -200
      94         88  -89  211 -212
      95         89  -90  223 -224
      96         90  -91  235 -236
      97         91  -92  247 -248
      98         92  -93  259 -260
      99         93  -94  271 -272
     100         94  -95  283 -284
     101         95  -96  295 -296
     102         96  307 -308
     103        -97  164 -165
     104         97  -98  176 -177
     105         98  -99  188 -189
     106         99 -100  200 -201
     107        100 -101  212 -213
     108        101 -102  224 -225
     109        102 -103  236 -237
     110        103 -104  248 -249 -313
     111        104 -105  260 -261
     112        105 -106  272 -273
     113        106 -107  284 -285
     114        107 -108  296 -297
     115        108  308 -309
     116       -109  165 -166
     117        109 -110  177 -178
     118        110 -111  189 -190
     119        111 -112  201 -202
     120        112 -113  213 -214
     121        113 -114  225 -226
     122        114 -115  237 -238
     123        115 -116  249 -250
     124        116 -117  261 -262
     125        117 -118  273 -274
     126        118 -119  285 -286
     127        119 -120  297 -298
     128        120  309 -310
     129       -121  166 -167
     130        121 -122  178 -179
     131        122 -123  190 -191
     132        123 -124  202 -203
     133        124 -125  214 -215
     134        125 -126  226 -227
     135        126 -127  238 -239
     136        127 -128  250 -251
     137        128 -129  262 -263
     138        129 -130  274 -275
     139        130 -131  286 -287
     140        131 -132  298 -299
     141        132  310 -311
     142       -133  167 -168
     143        133 -134  179 -180
     144        134 -135  191 -192
     145        135 -136  203 -204
     146        136 -137  215 -216
     147        137 -138  227 -228
     148        138 -139  239 -240
     149        139 -140  251 -252
     150        140 -141  263 -264
     151        141 -142  275 -276
     152        142 -143  287 -288
     153        143 -144  299 -300
     154        144  311 -312
     155        145 -146  180
     156        146 -147  192
     157        147 -148  204
     158        148 -149  216
     159        149 -150  228
     160        150 -151  240
     161        151 -152  252
     162        152 -153  264
     163        153 -154  276
     164        154 -155  288
     165        155 -156  300


                               ---------- SEGMENTATION DATA ----------
                                        COORDINATES IN METERS
                            I+ AND I- INDICATE THE SEGMENTS BEFORE AND AFTER I

   SEG    COORDINATES OF SEGM CENTER     SEGM    ORIENTATION ANGLES    WIRE    CONNECTION DATA   TAG
   No:       X         Y         Z      LENGTH     ALPHA      BETA    RADIUS    I-     I    I+   NO:
     1   -0.5588    0.6096    0.0000    0.1016    0.0000    0.0000    0.0162  -157     1     2     1
     2   -0.4572    0.6096    0.0000    0.1016    0.0000    0.0000    0.0162  -169     2     3     2
     3   -0.3556    0.6096    0.0000    0.1016    0.0000    0.0000    0.0162  -181     3     4     3
     4   -0.2540    0.6096    0.0000    0.1016    0.0000    0.0000    0.0162  -193     4     5     4
     5   -0.1524    0.6096    0.0000    0.1016    0.0000    0.0000    0.0162  -205     5     6     5
     6   -0.0508    0.6096    0.0000    0.1016    0.0000    0.0000    0.0162  -217     6     7     6
     7    0.0508    0.6096    0.0000    0.1016    0.0000    0.0000    0.0162  -229     7     8     7
     8    0.1524    0.6096    0.0000    0.1016    0.0000    0.0000    0.0162  -241     8     9     8
     9    0.2540    0.6096    0.0000    0.1016    0.0000    0.0000    0.0162  -253     9    10     9
    10    0.3556    0.6096    0.0000    0.1016    0.0000    0.0000    0.0162  -265    10    11    10
    11    0.4572    0.6096    0.0000    0.1016    0.0000    0.0000    0.0162  -277    11    12    11
    12    0.5588    0.6096    0.0000    0.1016    0.0000    0.0000    0.0162  -289    12   301    12
    13   -0.5588    0.5080    0.0000    0.1016    0.0000    0.0000    0.0162   157    13    14    13
    14   -0.4572    0.5080    0.0000    0.1016    0.0000    0.0000    0.0162   169    14    15    14
    15   -0.3556    0.5080    0.0000    0.1016    0.0000    0.0000    0.0162   181    15    16    15
    16   -0.2540    0.5080    0.0000    0.1016    0.0000    0.0000    0.0162   193    16    17    16
    17   -0.1524    0.5080    0.0000    0.1016    0.0000    0.0000    0.0162   205    17    18    17
    18   -0.0508    0.5080    0.0000    0.1016    0.0000    0.0000    0.0162   217    18    19    18
    19    0.0508    0.5080    0.0000    0.1016    0.0000    0.0000    0.0162   229    19    20    19
    20    0.1524    0.5080    0.0000    0.1016    0.0000    0.0000    0.0162   241    20    21    20
    21    0.2540    0.5080    0.0000    0.1016    0.0000    0.0000    0.0162   253    21    22    21
    22    0.3556    0.5080    0.0000    0.1016    0.0000    0.0000    0.0162   265    22    23    22
    23    0.4572    0.5080    0.0000    0.1016    0.0000    0.0000    0.0162   277    23    24    23
    24    0.5588    0.5080    0.0000    0.1016    0.0000    0.0000    0.0162   289    24  -301    24
    25   -0.5588    0.4064    0.0000    0.1016    0.0000    0.0000    0.0162   158    25    26    25
    26   -0.4572    0.4064    0.0000    0.1016    0.0000    0.0000    0.0162   170    26    27    26
    27   -0.3556    0.4064    0.0000    0.1016    0.0000    0.0000    0.0162   182    27    28    27
    28   -0.2540    0.4064    0.0000    0.1016    0.0000    0.0000    0.0162   194    28    29    28
    29   -0.1524    0.4064    0.0000    0.1016    0.0000    0.0000    0.0162   206    29    30    29
    30   -0.0508    0.4064    0.0000    0.1016    0.0000    0.0000    0.0162   218    30    31    30
    31    0.0508    0.4064    0.0000    0.1016    0.0000    0.0000    0.0162   230    31    32    31
    32    0.1524    0.4064    0.0000    0.1016    0.0000    0.0000    0.0162   242    32    33    32
    33    0.2540    0.4064    0.0000    0.1016    0.0000    0.0000    0.0162   254    33    34    33
    34    0.3556    0.4064    0.0000    0.1016    0.0000    0.0000    0.0162   266    34    35    34
    35    0.4572    0.4064    0.0000    0.1016    0.0000    0.0000    0.0162   278    35    36    35
    36    0.5588    0.4064    0.0000    0.1016    0.0000   -0.0000    0.0162   290    36  -302    36
    37   -0.5588    0.3048    0.0000    0.1016    0.0000    0.0000    0.0162   159    37    38    37
    38   -0.4572    0.3048    0.0000    0.1016    0.0000    0.0000    0.0162   171    38    39    38
    39   -0.3556    0.3048    0.0000    0.1016    0.0000    0.0000    0.0162   183    39    40    39
    40   -0.2540    0.3048    0.0000    0.1016    0.0000    0.0000    0.0162   195    40    41    40
    41   -0.1524    0.3048    0.0000    0.1016    0.0000    0.0000    0.0162   207    41    42    41
    42   -0.0508    0.3048    0.0000    0.1016    0.0000    0.0000    0.0162   219    42    43    42
    43    0.0508    0.3048    0.0000    0.1016    0.0000    0.0000    0.0162   231    43    44    43
    44    0.1524    0.3048    0.0000    0.1016    0.0000    0.0000    0.0162   243    44    45    44
    45    0.2540    0.3048    0.0000    0.1016    0.0000    0.0000    0.0162   255    45    46    45
    46    0.3556    0.3048    0.0000    0.1016    0.0000    0.0000    0.0162   267    46    47    46
    47    0.4572    0.3048    0.0000    0.1016    0.0000    0.0000    0.0162   279    47    48    47
    48    0.5588    0.3048    0.0000    0.1016    0.0000    0.0000    0.0162   291    48  -303    48
    49   -0.5588    0.2032    0.0000    0.1016    0.0000    0.0000    0.0162   160    49    50    49
    50   -0.4572    0.2032    0.0000    0.1016    0.0000    0.0000    0.0162   172    50    51    50
    51   -0.3556    0.2032    0.0000    0.1016    0.0000    0.0000    0.0162   184    51    52    51
    52   -0.2540    0.2032    0.0000    0.1016    0.0000    0.0000    0.0162   196    52    53    52
    53   -0.1524    0.2032    0.0000    0.1016    0.0000    0.0000    0.0162   208    53    54    53
    54   -0.0508    0.2032    0.0000    0.1016    0.0000    0.0000    0.0162   220    54    55    54
    55    0.0508    0.2032    0.0000    0.1016    0.0000    0.0000    0.0162   232    55    56    55
    56    0.1524    0.2032    0.0000    0.1016    0.0000    0.0000    0.0162   244    56    57    56
    57    0.2540    0.2032    0.0000    0.1016    0.0000    0.0000    0.0162   256    57    58    57
    58    0.3556    0.2032    0.0000    0.1016    0.0000    0.0000    0.0162   268    58    59    58
    59    0.4572    0.2032    0.0000    0.1016    0.0000    0.0000    0.0162   280    59    60    59
    60    0.5588    0.2032    0.0000    0.1016    0.0000   -0.0000    0.0162   292    60  -304    60
    61   -0.5588    0.1016    0.0000    0.1016    0.0000    0.0000    0.0162   161    61    62    61
    62   -0.4572    0.1016    0.0000    0.1016    0.0000    0.0000    0.0162   173    62    63    62
    63   -0.3556    0.1016    0.0000    0.1016    0.0000    0.0000    0.0162   185    63    64    63
    64   -0.2540    0.1016    0.0000    0.1016    0.0000    0.0000    0.0162   197    64    65    64
    65   -0.1524    0.1016    0.0000    0.1016    0.0000    0.0000    0.0162   209    65    66    65
    66   -0.0508    0.1016    0.0000    0.1016    0.0000    0.0000    0.0162   221    66    67    66
    67    0.0508    0.1016    0.0000    0.1016    0.0000    0.0000    0.0162   233    67    68    67
    68    0.1524    0.1016    0.0000    0.1016    0.0000    0.0000    0.0162   245    68    69    68
    69    0.2540    0.1016    0.0000    0.1016    0.0000    0.0000    0.0162   257    69    70    69
    70    0.3556    0.1016    0.0000    0.1016    0.0000    0.0000    0.0162   269    70    71    70
    71    0.4572    0.1016    0.0000    0.1016    0.0000    0.0000    0.0162   281    71    72    71
    72    0.5588    0.1016    0.0000    0.1016    0.0000   -0.0000    0.0162   293    72  -305    72
    73   -0.5588    0.0000    0.0000    0.1016    0.0000    0.0000    0.0162   162    73    74    73
    74   -0.4572    0.0000    0.0000    0.1016    0.0000    0.0000    0.0162   174    74    75    74
    75   -0.3556    0.0000    0.0000    0.1016    0.0000    0.0000    0.0162   186    75    76    75
    76   -0.2540    0.0000    0.0000    0.1016    0.0000    0.0000    0.0162   198    76    77    76
    77   -0.1524    0.0000    0.0000    0.1016    0.0000    0.0000    0.0162   210    77    78    77
    78   -0.0508    0.0000    0.0000    0.1016    0.0000    0.0000    0.0162   222    78    79    78
    79    0.0508    0.0000    0.0000    0.1016    0.0000    0.0000    0.0162   234    79    80    79
    80    0.1524    0.0000    0.0000    0.1016    0.0000    0.0000    0.0162   246    80    81    80
    81    0.2540    0.0000    0.0000    0.1016    0.0000    0.0000    0.0162   258    81    82    81
    82    0.3556    0.0000    0.0000    0.1016    0.0000    0.0000    0.0162   270    82    83    82
    83    0.4572    0.0000    0.0000    0.1016    0.0000    0.0000    0.0162   282    83    84    83
    84    0.5588    0.0000    0.0000    0.1016    0.0000    0.0000    0.0162   294    84  -306    84
    85   -0.5588   -0.1016    0.0000    0.1016    0.0000   -0.0000    0.0162   163    85    86    85
    86   -0.4572   -0.1016    0.0000    0.1016    0.0000    0.0000    0.0162   175    86    87    86
    87   -0.3556   -0.1016    0.0000    0.1016    0.0000    0.0000    0.0162   187    87    88    87
    88   -0.2540   -0.1016    0.0000    0.1016    0.0000    0.0000    0.0162   199    88    89    88
    89   -0.1524   -0.1016    0.0000    0.1016    0.0000    0.0000    0.0162   211    89    90    89
    90   -0.0508   -0.1016    0.0000    0.1016    0.0000    0.0000    0.0162   223    90    91    90
    91    0.0508   -0.1016    0.0000    0.1016    0.0000    0.0000    0.0162   235    91    92    91
    92    0.1524   -0.1016    0.0000    0.1016    0.0000    0.0000    0.0162   247    92    93    92
    93    0.2540   -0.1016    0.0000    0.1016    0.0000    0.0000    0.0162   259    93    94    93
    94    0.3556   -0.1016    0.0000    0.1016    0.0000    0.0000    0.0162   271    94    95    94
    95    0.4572   -0.1016    0.0000    0.1016    0.0000    0.0000    0.0162   283    95    96    95
    96    0.5588   -0.1016    0.0000    0.1016    0.0000    0.0000    0.0162   295    96  -307    96
    97   -0.5588   -0.2032    0.0000    0.1016    0.0000   -0.0000    0.0162   164    97    98    97
    98   -0.4572   -0.2032    0.0000    0.1016    0.0000    0.0000    0.0162   176    98    99    98
    99   -0.3556   -0.2032    0.0000    0.1016    0.0000    0.0000    0.0162   188    99   100    99
   100   -0.2540   -0.2032    0.0000    0.1016    0.0000    0.0000    0.0162   200   100   101   100
   101   -0.1524   -0.2032    0.0000    0.1016    0.0000    0.0000    0.0162   212   101   102   101
   102   -0.0508   -0.2032    0.0000    0.1016    0.0000    0.0000    0.0162   224   102   103   102
   103    0.0508   -0.2032    0.0000    0.1016    0.0000    0.0000    0.0162   236   103   104   103
   104    0.1524   -0.2032    0.0000    0.1016    0.0000    0.0000    0.0162   248   104   105   104
   105    0.2540   -0.2032    0.0000    0.1016    0.0000    0.0000    0.0162   260   105   106   105
   106    0.3556   -0.2032    0.0000    0.1016    0.0000    0.0000    0.0162   272   106   107   106
   107    0.4572   -0.2032    0.0000    0.1016    0.0000    0.0000    0.0162   284   107   108   107
   108    0.5588   -0.2032    0.0000    0.1016    0.0000    0.0000    0.0162   296   108  -308   108
   109   -0.5588   -0.3048    0.0000    0.1016    0.0000    0.0000    0.0162   165   109   110   109
   110   -0.4572   -0.3048    0.0000    0.1016    0.0000    0.0000    0.0162   177   110   111   110
   111   -0.3556   -0.3048    0.0000    0.1016    0.0000    0.0000    0.0162   189   111   112   111
   112   -0.2540   -0.3048    0.0000    0.1016    0.0000    0.0000    0.0162   201   112   113   112
   113   -0.1524   -0.3048    0.0000    0.1016    0.0000    0.0000    0.0162   213   113   114   113
   114   -0.0508   -0.3048    0.0000    0.1016    0.0000    0.0000    0.0162   225   114   115   114
   115    0.0508   -0.3048    0.0000    0.1016    0.0000    0.0000    0.0162   237   115   116   115
   116    0.1524   -0.3048    0.0000    0.1016    0.0000    0.0000    0.0162   249   116   117   116
   117    0.2540   -0.3048    0.0000    0.1016    0.0000    0.0000    0.0162   261   117   118   117
   118    0.3556   -0.3048    0.0000    0.1016    0.0000    0.0000    0.0162   273   118   119   118
   119    0.4572   -0.3048    0.0000    0.1016    0.0000    0.0000    0.0162   285   119   120   119
   120    0.5588   -0.3048    0.0000    0.1016    0.0000    0.0000    0.0162   297   120  -309   120
   121   -0.5588   -0.4064    0.0000    0.1016    0.0000   -0.0000    0.0162   166   121   122   121
   122   -0.4572   -0.4064    0.0000    0.1016    0.0000    0.0000    0.0162   178   122   123   122
   123   -0.3556   -0.4064    0.0000    0.1016    0.0000    0.0000    0.0162   190   123   124   123
   124   -0.2540   -0.4064    0.0000    0.1016    0.0000    0.0000    0.0162   202   124   125   124
   125   -0.1524   -0.4064    0.0000    0.1016    0.0000    0.0000    0.0162   214   125   126   125
   126   -0.0508   -0.4064    0.0000    0.1016    0.0000    0.0000    0.0162   226   126   127   126
   127    0.0508   -0.4064    0.0000    0.1016    0.0000    0.0000    0.0162   238   127   128   127
   128    0.1524   -0.4064    0.0000    0.1016    0.0000    0.0000    0.0162   250   128   129   128
   129    0.2540   -0.4064    0.0000    0.1016    0.0000    0.0000    0.0162   262   129   130   129
   130    0.3556   -0.4064    0.0000    0.1016    0.0000    0.0000    0.0162   274   130   131   130
   131    0.4572   -0.4064    0.0000    0.1016    0.0000    0.0000    0.0162   286   131   132   131
   132    0.5588   -0.4064    0.0000    0.1016    0.0000    0.0000    0.0162   298   132  -310   132
   133   -0.5588   -0.5080    0.0000    0.1016    0.0000    0.0000    0.0162   167   133   134   133
   134   -0.4572   -0.5080    0.0000    0.1016    0.0000    0.0000    0.0162   179   134   135   134
   135   -0.3556   -0.5080    0.0000    0.1016    0.0000    0.0000    0.0162   191   135   136   135
   136   -0.2540   -0.5080    0.0000    0.1016    0.0000    0.0000    0.0162   203   136   137   136
   137   -0.1524   -0.5080    0.0000    0.1016    0.0000    0.0000    0.0162   215   137   138   137
   138   -0.0508   -0.5080    0.0000    0.1016    0.0000    0.0000    0.0162   227   138   139   138
   139    0.0508   -0.5080    0.0000    0.1016    0.0000    0.0000    0.0162   239   139   140   139
   140    0.1524   -0.5080    0.0000    0.1016    0.0000    0.0000    0.0162   251   140   141   140
   141    0.2540   -0.5080    0.0000    0.1016    0.0000    0.0000    0.0162   263   141   142   141
   142    0.3556   -0.5080    0.0000    0.1016    0.0000    0.0000    0.0162   275   142   143   142
   143    0.4572   -0.5080    0.0000    0.1016    0.0000    0.0000    0.0162   287   143   144   143
   144    0.5588   -0.5080    0.0000    0.1016    0.0000    0.0000    0.0162   299   144  -311   144
   145   -0.5588   -0.6096    0.0000    0.1016    0.0000    0.0000    0.0162   168   145   146   145
   146   -0.4572   -0.6096    0.0000    0.1016    0.0000    0.0000    0.0162   180   146   147   146
   147   -0.3556   -0.6096    0.0000    0.1016    0.0000    0.0000    0.0162   192   147   148   147
   148   -0.2540   -0.6096    0.0000    0.1016    0.0000    0.0000    0.0162   204   148   149   148
   149   -0.1524   -0.6096    0.0000    0.1016    0.0000    0.0000    0.0162   216   149   150   149
   150   -0.0508   -0.6096    0.0000    0.1016    0.0000    0.0000    0.0162   228   150   151   150
   151    0.0508   -0.6096    0.0000    0.1016    0.0000    0.0000    0.0162   240   151   152   151
   152    0.1524   -0.6096    0.0000    0.1016    0.0000    0.0000    0.0162   252   152   153   152
   153    0.2540   -0.6096    0.0000    0.1016    0.0000    0.0000    0.0162   264   153   154   153
   154    0.3556   -0.6096    0.0000    0.1016    0.0000    0.0000    0.0162   276   154   155   154
   155    0.4572   -0.6096    0.0000    0.1016    0.0000    0.0000    0.0162   288   155   156   155
   156    0.5588   -0.6096    0.0000    0.1016    0.0000    0.0000    0.0162   300   156  -312   156
   157   -0.6096    0.5588    0.0000    0.1016    0.0000  -90.0000    0.0162    -1   157   158   157
   158   -0.6096    0.4572    0.0000    0.1016    0.0000  -90.0000    0.0162   -13   158   159   158
   159   -0.6096    0.3556    0.0000    0.1016    0.0000  -90.0000    0.0162   -25   159   160   159
   160   -0.6096    0.2540    0.0000    0.1016    0.0000  -90.0000    0.0162   -37   160   161   160
   161   -0.6096    0.1524    0.0000    0.1016    0.0000  -90.0000    0.0162   -49   161   162   161
   162   -0.6096    0.0508    0.0000    0.1016    0.0000  -90.0000    0.0162   -61   162   163   162
   163   -0.6096   -0.0508    0.0000    0.1016    0.0000  -90.0000    0.0162   -73   163   164   163
   164   -0.6096   -0.1524    0.0000    0.1016    0.0000  -90.0000    0.0162   -85   164   165   164
   165   -0.6096   -0.2540    0.0000    0.1016    0.0000  -90.0000    0.0162   -97   165   166   165
   166   -0.6096   -0.3556    0.0000    0.1016    0.0000  -90.0000    0.0162  -109   166   167   166
   167   -0.6096   -0.4572    0.0000    0.1016    0.0000  -90.0000    0.0162  -121   167   168   167
   168   -0.6096   -0.5588    0.0000    0.1016    0.0000  -90.0000    0.0162  -133   168   145   168
   169   -0.5080    0.5588    0.0000    0.1016    0.0000  -90.0000    0.0162     1   169   170   169
   170   -0.5080    0.4572    0.0000    0.1016    0.0000  -90.0000    0.0162    13   170   171   170
   171   -0.5080    0.3556    0.0000    0.1016    0.0000  -90.0000    0.0162    25   171   172   171
   172   -0.5080    0.2540    0.0000    0.1016    0.0000  -90.0000    0.0162    37   172   173   172
   173   -0.5080    0.1524    0.0000    0.1016    0.0000  -90.0000    0.0162    49   173   174   173
   174   -0.5080    0.0508    0.0000    0.1016    0.0000  -90.0000    0.0162    61   174   175   174
   175   -0.5080   -0.0508    0.0000    0.1016    0.0000  -90.0000    0.0162    73   175   176   175
   176   -0.5080   -0.1524    0.0000    0.1016    0.0000  -90.0000    0.0162    85   176   177   176
   177   -0.5080   -0.2540    0.0000    0.1016    0.0000  -90.0000    0.0162    97   177   178   177
   178   -0.5080   -0.3556    0.0000    0.1016    0.0000  -90.0000    0.0162   109   178   179   178
   179   -0.5080   -0.4572    0.0000    0.1016    0.0000  -90.0000    0.0162   121   179   180   179
   180   -0.5080   -0.5588    0.0000    0.1016    0.0000  -90.0000    0.0162   133   180  -145   180
   181   -0.4064    0.5588    0.0000    0.1016    0.0000  -90.0000    0.0162     2   181   182   181
   182   -0.4064    0.4572    0.0000    0.1016    0.0000  -90.0000    0.0162    14   182   183   182
   183   -0.4064    0.3556    0.0000    0.1016    0.0000  -90.0000    0.0162    26   183   184   183
   184   -0.4064    0.2540    0.0000    0.1016    0.0000  -90.0000    0.0162    38   184   185   184
   185   -0.4064    0.1524    0.0000    0.1016    0.0000  -90.0000    0.0162    50   185   186   185
   186   -0.4064    0.0508    0.0000    0.1016    0.0000  -90.0000    0.0162    62   186   187   186
   187   -0.4064   -0.0508    0.0000    0.1016    0.0000  -90.0000    0.0162    74   187   188   187
   188   -0.4064   -0.1524    0.0000    0.1016    0.0000  -90.0000    0.0162    86   188   189   188
   189   -0.4064   -0.2540    0.0000    0.1016    0.0000  -90.0000    0.0162    98   189   190   189
   190   -0.4064   -0.3556    0.0000    0.1016    0.0000  -90.0000    0.0162   110   190   191   190
   191   -0.4064   -0.4572    0.0000    0.1016    0.0000  -90.0000    0.0162   122   191   192   191
   192   -0.4064   -0.5588    0.0000    0.1016    0.0000  -90.0000    0.0162   134   192  -146   192
   193   -0.3048    0.5588    0.0000    0.1016    0.0000  -90.0000    0.0162     3   193   194   193
   194   -0.3048    0.4572    0.0000    0.1016    0.0000  -90.0000    0.0162    15   194   195   194
   195   -0.3048    0.3556    0.0000    0.1016    0.0000  -90.0000    0.0162    27   195   196   195
   196   -0.3048    0.2540    0.0000    0.1016    0.0000  -90.0000    0.0162    39   196   197   196
   197   -0.3048    0.1524    0.0000    0.1016    0.0000  -90.0000    0.0162    51   197   198   197
   198   -0.3048    0.0508    0.0000    0.1016    0.0000  -90.0000    0.0162    63   198   199   198
   199   -0.3048   -0.0508    0.0000    0.1016    0.0000  -90.0000    0.0162    75   199   200   199
   200   -0.3048   -0.1524    0.0000    0.1016    0.0000  -90.0000    0.0162    87   200   201   200
   201   -0.3048   -0.2540    0.0000    0.1016    0.0000  -90.0000    0.0162    99   201   202   201
   202   -0.3048   -0.3556    0.0000    0.1016    0.0000  -90.0000    0.0162   111   202   203   202
   203   -0.3048   -0.4572    0.0000    0.1016    0.0000  -90.0000    0.0162   123   203   204   203
   204   -0.3048   -0.5588    0.0000    0.1016    0.0000  -90.0000    0.0162   135   204  -147   204
   205   -0.2032    0.5588    0.0000    0.1016    0.0000  -90.0000    0.0162     4   205   206   205
   206   -0.2032    0.4572    0.0000    0.1016    0.0000  -90.0000    0.0162    16   206   207   206
   207   -0.2032    0.3556    0.0000    0.1016    0.0000  -90.0000    0.0162    28   207   208   207
   208   -0.2032    0.2540    0.0000    0.1016    0.0000  -90.0000    0.0162    40   208   209   208
   209   -0.2032    0.1524    0.0000    0.1016    0.0000  -90.0000    0.0162    52   209   210   209
   210   -0.2032    0.0508    0.0000    0.1016    0.0000  -90.0000    0.0162    64   210   211   210
   211   -0.2032   -0.0508    0.0000    0.1016    0.0000  -90.0000    0.0162    76   211   212   211
   212   -0.2032   -0.1524    0.0000    0.1016    0.0000  -90.0000    0.0162    88   212   213   212
   213   -0.2032   -0.2540    0.0000    0.1016    0.0000  -90.0000    0.0162   100   213   214   213
   214   -0.2032   -0.3556    0.0000    0.1016    0.0000  -90.0000    0.0162   112   214   215   214
   215   -0.2032   -0.4572    0.0000    0.1016    0.0000  -90.0000    0.0162   124   215   216   215
   216   -0.2032   -0.5588    0.0000    0.1016    0.0000  -90.0000    0.0162   136   216  -148   216
   217   -0.1016    0.5588    0.0000    0.1016    0.0000  -90.0000    0.0162     5   217   218   217
   218   -0.1016    0.4572    0.0000    0.1016    0.0000  -90.0000    0.0162    17   218   219   218
   219   -0.1016    0.3556    0.0000    0.1016    0.0000  -90.0000    0.0162    29   219   220   219
   220   -0.1016    0.2540    0.0000    0.1016    0.0000  -90.0000    0.0162    41   220   221   220
   221   -0.1016    0.1524    0.0000    0.1016    0.0000  -90.0000    0.0162    53   221   222   221
   222   -0.1016    0.0508    0.0000    0.1016    0.0000  -90.0000    0.0162    65   222   223   222
   223   -0.1016   -0.0508    0.0000    0.1016    0.0000  -90.0000    0.0162    77   223   224   223
   224   -0.1016   -0.1524    0.0000    0.1016    0.0000  -90.0000    0.0162    89   224   225   224
   225   -0.1016   -0.2540    0.0000    0.1016    0.0000  -90.0000    0.0162   101   225   226   225
   226   -0.1016   -0.3556    0.0000    0.1016    0.0000  -90.0000    0.0162   113   226   227   226
   227   -0.1016   -0.4572    0.0000    0.1016    0.0000  -90.0000    0.0162   125   227   228   227
   228   -0.1016   -0.5588    0.0000    0.1016    0.0000  -90.0000    0.0162   137   228  -149   228
   229    0.0000    0.5588    0.0000    0.1016    0.0000  -90.0000    0.0162     6   229   230   229
   230    0.0000    0.4572    0.0000    0.1016    0.0000  -90.0000    0.0162    18   230   231   230
   231    0.0000    0.3556    0.0000    0.1016    0.0000  -90.0000    0.0162    30   231   232   231
   232    0.0000    0.2540    0.0000    0.1016    0.0000  -90.0000    0.0162    42   232   233   232
   233    0.0000    0.1524    0.0000    0.1016    0.0000  -90.0000    0.0162    54   233   234   233
   234    0.0000    0.0508    0.0000    0.1016    0.0000  -90.0000    0.0162    66   234   235   234
   235    0.0000   -0.0508    0.0000    0.1016    0.0000  -90.0000    0.0162    78   235   236   235
   236    0.0000   -0.1524    0.0000    0.1016    0.0000  -90.0000    0.0162    90   236   237   236
   237    0.0000   -0.2540    0.0000    0.1016    0.0000  -90.0000    0.0162   102   237   238   237
   238    0.0000   -0.3556    0.0000    0.1016    0.0000  -90.0000    0.0162   114   238   239   238
   239    0.0000   -0.4572    0.0000    0.1016    0.0000  -90.0000    0.0162   126   239   240   239
   240    0.0000   -0.5588    0.0000    0.1016    0.0000  -90.0000    0.0162   138   240  -150   240
   241    0.1016    0.5588    0.0000    0.1016    0.0000  -90.0000    0.0162     7   241   242   241
   242    0.1016    0.4572    0.0000    0.1016    0.0000  -90.0000    0.0162    19   242   243   242
   243    0.1016    0.3556    0.0000    0.1016    0.0000  -90.0000    0.0162    31   243   244   243
   244    0.1016    0.2540    0.0000    0.1016    0.0000  -90.0000    0.0162    43   244   245   244
   245    0.1016    0.1524    0.0000    0.1016    0.0000  -90.0000    0.0162    55   245   246   245
   246    0.1016    0.0508    0.0000    0.1016    0.0000  -90.0000    0.0162    67   246   247   246
   247    0.1016   -0.0508    0.0000    0.1016    0.0000  -90.0000    0.0162    79   247   248   247
   248    0.1016   -0.1524    0.0000    0.1016    0.0000  -90.0000    0.0162    91   248   249   248
   249    0.1016   -0.2540    0.0000    0.1016    0.0000  -90.0000    0.0162  -313   249   250   249
   250    0.1016   -0.3556    0.0000    0.1016    0.0000  -90.0000    0.0162   115   250   251   250
   251    0.1016   -0.4572    0.0000    0.1016    0.0000  -90.0000    0.0162   127   251   252   251
   252    0.1016   -0.5588    0.0000    0.1016    0.0000  -90.0000    0.0162   139   252  -151   252
   253    0.2032    0.5588    0.0000    0.1016    0.0000  -90.0000    0.0162     8   253   254   253
   254    0.2032    0.4572    0.0000    0.1016    0.0000  -90.0000    0.0162    20   254   255   254
   255    0.2032    0.3556    0.0000    0.1016    0.0000  -90.0000    0.0162    32   255   256   255
   256    0.2032    0.2540    0.0000    0.1016    0.0000  -90.0000    0.0162    44   256   257   256
   257    0.2032    0.1524    0.0000    0.1016    0.0000  -90.0000    0.0162    56   257   258   257
   258    0.2032    0.0508    0.0000    0.1016    0.0000  -90.0000    0.0162    68   258   259   258
   259    0.2032   -0.0508    0.0000    0.1016    0.0000  -90.0000    0.0162    80   259   260   259
   260    0.2032   -0.1524    0.0000    0.1016    0.0000  -90.0000    0.0162    92   260   261   260
   261    0.2032   -0.2540    0.0000    0.1016    0.0000  -90.0000    0.0162   104   261   262   261
   262    0.2032   -0.3556    0.0000    0.1016    0.0000  -90.0000    0.0162   116   262   263   262
   263    0.2032   -0.4572    0.0000    0.1016    0.0000  -90.0000    0.0162   128   263   264   263
   264    0.2032   -0.5588    0.0000    0.1016    0.0000  -90.0000    0.0162   140   264  -152   264
   265    0.3048    0.5588    0.0000    0.1016    0.0000  -90.0000    0.0162     9   265   266   265
   266    0.3048    0.4572    0.0000    0.1016    0.0000  -90.0000    0.0162    21   266   267   266
   267    0.3048    0.3556    0.0000    0.1016    0.0000  -90.0000    0.0162    33   267   268   267
   268    0.3048    0.2540    0.0000    0.1016    0.0000  -90.0000    0.0162    45   268   269   268
   269    0.3048    0.1524    0.0000    0.1016    0.0000  -90.0000    0.0162    57   269   270   269
   270    0.3048    0.0508    0.0000    0.1016    0.0000  -90.0000    0.0162    69   270   271   270
   271    0.3048   -0.0508    0.0000    0.1016    0.0000  -90.0000    0.0162    81   271   272   271
   272    0.3048   -0.1524    0.0000    0.1016    0.0000  -90.0000    0.0162    93   272   273   272
   273    0.3048   -0.2540    0.0000    0.1016    0.0000  -90.0000    0.0162   105   273   274   273
   274    0.3048   -0.3556    0.0000    0.1016    0.0000  -90.0000    0.0162   117   274   275   274
   275    0.3048   -0.4572    0.0000    0.1016    0.0000  -90.0000    0.0162   129   275   276   275
   276    0.3048   -0.5588    0.0000    0.1016    0.0000  -90.0000    0.0162   141   276  -153   276
   277    0.4064    0.5588    0.0000    0.1016    0.0000  -90.0000    0.0162    10   277   278   277
   278    0.4064    0.4572    0.0000    0.1016    0.0000  -90.0000    0.0162    22   278   279   278
   279    0.4064    0.3556    0.0000    0.1016    0.0000  -90.0000    0.0162    34   279   280   279
   280    0.4064    0.2540    0.0000    0.1016    0.0000  -90.0000    0.0162    46   280   281   280
   281    0.4064    0.1524    0.0000    0.1016    0.0000  -90.0000    0.0162    58   281   282   281
   282    0.4064    0.0508    0.0000    0.1016    0.0000  -90.0000    0.0162    70   282   283   282
   283    0.4064   -0.0508    0.0000    0.1016    0.0000  -90.0000    0.0162    82   283   284   283
   284    0.4064   -0.1524    0.0000    0.1016    0.0000  -90.0000    0.0162    94   284   285   284
   285    0.4064   -0.2540    0.0000    0.1016    0.0000  -90.0000    0.0162   106   285   286   285
   286    0.4064   -0.3556    0.0000    0.1016    0.0000  -90.0000    0.0162   118   286   287   286
   287    0.4064   -0.4572    0.0000    0.1016    0.0000  -90.0000    0.0162   130   287   288   287
   288    0.4064   -0.5588    0.0000    0.1016    0.0000  -90.0000    0.0162   142   288  -154   288
   289    0.5080    0.5588    0.0000    0.1016    0.0000  -90.0000    0.0162    11   289   290   289
   290    0.5080    0.4572    0.0000    0.1016    0.0000  -90.0000    0.0162    23   290   291   290
   291    0.5080    0.3556    0.0000    0.1016    0.0000  -90.0000    0.0162    35   291   292   291
   292    0.5080    0.2540    0.0000    0.1016    0.0000  -90.0000    0.0162    47   292   293   292
   293    0.5080    0.1524    0.0000    0.1016    0.0000  -90.0000    0.0162    59   293   294   293
   294    0.5080    0.0508    0.0000    0.1016    0.0000  -90.0000    0.0162    71   294   295   294
   295    0.5080   -0.0508    0.0000    0.1016    0.0000  -90.0000    0.0162    83   295   296   295
   296    0.5080   -0.1524    0.0000    0.1016    0.0000  -90.0000    0.0162    95   296   297   296
   297    0.5080   -0.2540    0.0000    0.1016    0.0000  -90.0000    0.0162   107   297   298   297
   298    0.5080   -0.3556    0.0000    0.1016    0.0000  -90.0000    0.0162   119   298   299   298
   299    0.5080   -0.4572    0.0000    0.1016    0.0000  -90.0000    0.0162   131   299   300   299
   300    0.5080   -0.5588    0.0000    0.1016    0.0000  -90.0000    0.0162   143   300  -155   300
   301    0.6096    0.5588    0.0000    0.1016    0.0000  -90.0000    0.0162    12   301   302   301
   302    0.6096    0.4572    0.0000    0.1016    0.0000  -90.0000    0.0162    24   302   303   302
   303    0.6096    0.3556    0.0000    0.1016    0.0000  -90.0000    0.0162    36   303   304   303
   304    0.6096    0.2540    0.0000    0.1016    0.0000  -90.0000    0.0162    48   304   305   304
   305    0.6096    0.1524    0.0000    0.1016    0.0000  -90.0000    0.0162    60   305   306   305
   306    0.6096    0.0508    0.0000    0.1016    0.0000  -90.0000    0.0162    72   306   307   306
   307    0.6096   -0.0508    0.0000    0.1016    0.0000  -90.0000    0.0162    84   307   308   307
   308    0.6096   -0.1524    0.0000    0.1016    0.0000  -90.0000    0.0162    96   308   309   308
   309    0.6096   -0.2540    0.0000    0.1016    0.0000  -90.0000    0.0162   108   309   310   309
   310    0.6096   -0.3556    0.0000    0.1016    0.0000  -90.0000    0.0162   120   310   311   310
   311    0.6096   -0.4572    0.0000    0.1016    0.0000  -90.0000    0.0162   132   311   312   311
   312    0.6096   -0.5588    0.0000    0.1016    0.0000  -90.0000    0.0162   144   312  -156   312
   313    0.1016   -0.2032    0.0300    0.0600   90.0000    0.0000    0.0010   103   313   314   313
   314    0.1016   -0.2032    0.0900    0.0600   90.0000    0.0000    0.0010   313   314   315   313
   315    0.1016   -0.2032    0.1500    0.0600   90.0000    0.0000    0.0010   314   315   316   313
   316    0.1016   -0.2032    0.2100    0.0600   90.0000    0.0000    0.0010   315   316   317   313
   317    0.1016   -0.2032    0.2700    0.0600   90.0000    0.0000    0.0010   316   317   318   313
   318    0.1016   -0.2032    0.3300    0.0600   90.0000    0.0000    0.0010   317   318   319   313
   319    0.1016   -0.2032    0.3900    0.0600   90.0000    0.0000    0.0010   318   319   320   313
   320    0.1016   -0.2032    0.4500    0.0600   90.0000    0.0000    0.0010   319   320     0   313
   321    0.2032    0.6096    0.2644    0.0287   90.0000    0.0000    0.0010   336   321   322   314
   322    0.2032    0.6096    0.2931    0.0287   90.0000    0.0000    0.0010   321   322   323   314
   323    0.2032    0.6096    0.3219    0.0287   90.0000    0.0000    0.0010   322   323   324   314
   324    0.2032    0.6096    0.3506    0.0287   90.0000    0.0000    0.0010   323   324   325   314
   325    0.2032    0.6096    0.3794    0.0287   90.0000    0.0000    0.0010   324   325   326   314
   326    0.2032    0.6096    0.4081    0.0287   90.0000    0.0000    0.0010   325   326   327   314
   327    0.2032    0.6096    0.4369    0.0287   90.0000    0.0000    0.0010   326   327   328   314
   328    0.2032    0.6096    0.4656    0.0287   90.0000    0.0000    0.0010   327   328     0   314
   329    0.2032    0.6096    0.0344    0.0288   90.0000    0.0000    0.0010     0   329   330   315
   330    0.2032    0.6096    0.0631    0.0287   90.0000    0.0000    0.0010   329   330   331   315
   331    0.2032    0.6096    0.0919    0.0287   90.0000    0.0000    0.0010   330   331   332   315
   332    0.2032    0.6096    0.1206    0.0288   90.0000    0.0000    0.0010   331   332   333   315
   333    0.2032    0.6096    0.1494    0.0287   90.0000    0.0000    0.0010   332   333   334   315
   334    0.2032    0.6096    0.1781    0.0287   90.0000    0.0000    0.0010   333   334   335   315
   335    0.2032    0.6096    0.2069    0.0287   90.0000    0.0000    0.0010   334   335   336   315
   336    0.2032    0.6096    0.2356    0.0287   90.0000    0.0000    0.0010   335   336   321   315



*****  DATA CARD N0.   1 GN  -1     0     0     0  0.00000E+00  0.00000E+00  0.00000E+00  0.00000E+00  0.00000E+00  0.00000E+00
*****  DATA CARD N0.   2 FR   0     1     0     0  1.00000E+02  1.00000E+01  0.00000E+00  0.00000E+00  0.00000E+00  0.00000E+00
*****  DATA CARD N0.   3 EX   0   313     1     0  1.00000E+00  0.00000E+00  0.00000E+00  0.00000E+00  0.00000E+00  0.00000E+00
*****  DATA CARD N0.   4 RP   0    46    90  1000  0.00000E+00  0.00000E+00  4.00000E+00  4.00000E+00  0.00000E+00  0.00000E+00


                               --------- FREQUENCY --------
                               FREQUENCY=  1.0000E+02 MHZ
                               WAVELENGTH= 2.9980E+00 METERS


                        APPROXIMATE INTEGRATION EMPLOYED FOR SEGMENTS
                        THAT ARE MORE THAN 1.000 WAVELENGTHS APART
WARNING- SEGMENT[320] LENGTH TOO SMALL (0.009590)
WARNING- SEGMENT[321] LENGTH TOO SMALL (0.009590)
WARNING- SEGMENT[322] LENGTH TOO SMALL (0.009590)
WARNING- SEGMENT[323] LENGTH TOO SMALL (0.009590)
WARNING- SEGMENT[324] LENGTH TOO SMALL (0.009590)
WARNING- SEGMENT[325] LENGTH TOO SMALL (0.009590)
WARNING- SEGMENT[326] LENGTH TOO SMALL (0.009590)
WARNING- SEGMENT[327] LENGTH TOO SMALL (0.009590)
WARNING- SEGMENT[328] LENGTH TOO SMALL (0.009590)
WARNING- SEGMENT[329] LENGTH TOO SMALL (0.009590)
WARNING- SEGMENT[330] LENGTH TOO SMALL (0.009590)
WARNING- SEGMENT[331] LENGTH TOO SMALL (0.009590)
WARNING- SEGMENT[332] LENGTH TOO SMALL (0.009590)
WARNING- SEGMENT[333] LENGTH TOO SMALL (0.009590)
WARNING- SEGMENT[334] LENGTH TOO SMALL (0.009590)
WARNING- SEGMENT[335] LENGTH TOO SMALL (0.009590)



                          ------ STRUCTURE IMPEDANCE LOADING ------
                                 THIS STRUCTURE IS NOT LOADED



                            -------- ANTENNA ENVIRONMENT --------
                            FREE SPACE



                             ---------- MATRIX TIMING ----------
                               FILL= 160 msec  FACTOR: 30 msec


                      ----- ANTENNA INPUT PARAMETERS -----
  TAG   SEG       VOLTAGE (VOLTS)         CURRENT (AMPS)         IMPEDANCE (OHMS)        ADMITTANCE (MHOS)     POWER
  NO.   NO.     REAL      IMAGINARY     REAL      IMAGINARY     REAL      IMAGINARY    REAL       IMAGINARY   (WATTS)
 313   313  1.0000E+00  0.0000E+00  2.0538E-04  4.2603E-03  1.1289E+01 -2.3418E+02  2.0538E-04  4.2603E-03  1.0269E-04







                        ----- CURRENTS AND LOCATION -----
                            DISTANCES IN WAVELENGTHS 

   SEG  TAG    COORDINATES OF SEGM CENTER     SEGM    ------------- CURRENT (AMPS) -------------
   No:  No:       X         Y         Z      LENGTH     REAL      IMAGINARY    MAGN        PHASE
     1    1   -0.1864    0.2033    0.0000   0.03389  6.5344E-06  6.3677E-06  9.1240E-06   44.260 
     2    2   -0.1525    0.2033    0.0000   0.03389  1.4222E-05  1.0020E-05  1.7397E-05   35.165 
     3    3   -0.1186    0.2033    0.0000   0.03389  2.7703E-05  7.7228E-06  2.8759E-05   15.577 
     4    4   -0.0847    0.2033    0.0000   0.03389  3.7136E-05  1.8773E-06  3.7184E-05    2.894 
     5    5   -0.0508    0.2033    0.0000   0.03389  4.3994E-05 -6.8769E-06  4.4529E-05   -8.884 
     6    6   -0.0169    0.2033    0.0000   0.03389  4.8493E-05 -1.7564E-05  5.1575E-05  -19.910 
     7    7    0.0169    0.2033    0.0000   0.03389  5.0946E-05 -2.7863E-05  5.8068E-05  -28.674 
     8    8    0.0508    0.2033    0.0000   0.03389  5.1543E-05 -3.5478E-05  6.2573E-05  -34.540 
     9    9    0.0847    0.2033    0.0000   0.03389  4.9934E-05 -4.5113E-05  6.7295E-05  -42.096 
    10   10    0.1186    0.2033    0.0000   0.03389  4.7312E-05 -4.3883E-05  6.4530E-05  -42.846 
    11   11    0.1525    0.2033    0.0000   0.03389  4.3687E-05 -3.5666E-05  5.6397E-05  -39.228 
    12   12    0.1864    0.2033    0.0000   0.03389  3.0866E-05 -2.2574E-05  3.8240E-05  -36.180 
    13   13   -0.1864    0.1694    0.0000   0.03389  1.4924E-05  6.0558E-06  1.6106E-05   22.086 
    14   14   -0.1525    0.1694    0.0000   0.03389  2.1720E-05  8.7918E-06  2.3432E-05   22.037 
    15   15   -0.1186    0.1694    0.0000   0.03389  2.3829E-05  8.4390E-06  2.5279E-05   19.502 
    16   16   -0.0847    0.1694    0.0000   0.03389  2.6935E-05  5.5040E-06  2.7491E-05   11.549 
    17   17   -0.0508    0.1694    0.0000   0.03389  2.9191E-05 -7.2525E-08  2.9191E-05   -0.142 
    18   18   -0.0169    0.1694    0.0000   0.03389  3.0298E-05 -7.9779E-06  3.1330E-05  -14.752 
    19   19    0.0169    0.1694    0.0000   0.03389  3.0015E-05 -1.8183E-05  3.5093E-05  -31.207 
    20   20    0.0508    0.1694    0.0000   0.03389  2.8281E-05 -2.9311E-05  4.0730E-05  -46.025 
    21   21    0.0847    0.1694    0.0000   0.03389  2.6705E-05 -2.4721E-05  3.6391E-05  -42.791 
    22   22    0.1186    0.1694    0.0000   0.03389  2.2294E-05 -3.0488E-05  3.7770E-05  -53.825 
[...]
   137  137   -0.0508   -0.1694    0.0000   0.03389  4.4778E-05  8.6869E-05  9.7731E-05   62.730 
   138  138   -0.0169   -0.1694    0.0000   0.03389  4.3143E-05  7.4515E-05  8.6103E-05   59.930 
   139  139    0.0169   -0.1694    0.0000   0.03389  3.8266E-05  3.1619E-05  4.9640E-05   39.567 
   140  140    0.0508   -0.1694    0.0000   0.03389  3.1058E-05 -2.9722E-05  4.2988E-05  -43.741 
   141  141    0.0847   -0.1694    0.0000   0.03389  2.3930E-05 -7.1118E-05  7.5036E-05  -71.403 
   142  142    0.1186   -0.1694    0.0000   0.03389  1.8043E-05 -8.0625E-05  8.2619E-05  -77.386 
   143  143    0.1525   -0.1694    0.0000   0.03389  1.4682E-05 -7.3663E-05  7.5112E-05  -78.728 
   144  144    0.1864   -0.1694    0.0000   0.03389  9.1040E-06 -4.8399E-05  4.9248E-05  -79.347 
   145  145   -0.1864   -0.2033    0.0000   0.03389  4.1599E-05  3.3081E-05  5.3149E-05   38.493 
   146  146   -0.1525   -0.2033    0.0000   0.03389  5.8391E-05  5.3617E-05  7.9273E-05   42.560 
   147  147   -0.1186   -0.2033    0.0000   0.03389  6.7446E-05  7.9944E-05  1.0459E-04   49.847 
   148  148   -0.0847   -0.2033    0.0000   0.03389  7.2039E-05  9.4280E-05  1.1865E-04   52.617 
   149  149   -0.0508   -0.2033    0.0000   0.03389  7.2443E-05  9.3642E-05  1.1839E-04   52.274 
   150  150   -0.0169   -0.2033    0.0000   0.03389  6.8701E-05  7.2858E-05  1.0014E-04   46.682 
   151  151    0.0169   -0.2033    0.0000   0.03389  6.1049E-05  3.1358E-05  6.8632E-05   27.187 
   152  152    0.0508   -0.2033    0.0000   0.03389  5.0386E-05 -1.8868E-05  5.3803E-05  -20.529 
   153  153    0.0847   -0.2033    0.0000   0.03389  3.8045E-05 -5.7238E-05  6.8729E-05  -56.389 
   154  154    0.1186   -0.2033    0.0000   0.03389  2.4898E-05 -7.1508E-05  7.5719E-05  -70.802 
   155  155    0.1525   -0.2033    0.0000   0.03389  1.0075E-05 -5.9795E-05  6.0638E-05  -80.436 
   156  156    0.1864   -0.2033    0.0000   0.03389  2.4996E-06 -4.1368E-05  4.1444E-05  -86.542 
   157  157   -0.2033    0.1864    0.0000   0.03389  3.3528E-05 -2.8327E-06  3.3648E-05   -4.829 
   158  158   -0.2033    0.1525    0.0000   0.03389  5.3420E-05 -3.1821E-06  5.3514E-05   -3.409 
   159  159   -0.2033    0.1186    0.0000   0.03389  7.5134E-05 -4.2554E-06  7.5255E-05   -3.242 
   160  160   -0.2033    0.0847    0.0000   0.03389  9.0330E-05 -6.9499E-06  9.0597E-05   -4.400 
   161  161   -0.2033    0.0508    0.0000   0.03389  1.0064E-04 -1.1748E-05  1.0132E-04   -6.658 
   162  162   -0.2033    0.0169    0.0000   0.03389  1.0623E-04 -1.8794E-05  1.0788E-04  -10.033 
   163  163   -0.2033   -0.0169    0.0000   0.03389  1.0725E-04 -2.7514E-05  1.1072E-04  -14.389 
   164  164   -0.2033   -0.0508    0.0000   0.03389  1.0385E-04 -3.6321E-05  1.1002E-04  -19.277 
   165  165   -0.2033   -0.0847    0.0000   0.03389  9.6267E-05 -4.2613E-05  1.0528E-04  -23.877 
   166  166   -0.2033   -0.1186    0.0000   0.03389  8.4650E-05 -4.3223E-05  9.5047E-05  -27.049 
   167  167   -0.2033   -0.1525    0.0000   0.03389  6.8670E-05 -3.3414E-05  7.6368E-05  -25.947 
   168  168   -0.2033   -0.1864    0.0000   0.03389  4.5324E-05 -2.1280E-05  5.0071E-05  -25.150 
   169  169   -0.1694    0.1864    0.0000   0.03389  2.7489E-05  9.7099E-08  2.7489E-05    0.202 
   170  170   -0.1694    0.1525    0.0000   0.03389  4.2994E-05  2.0117E-06  4.3042E-05    2.679 
   171  171   -0.1694    0.1186    0.0000   0.03389  5.0891E-05  2.8580E-06  5.0971E-05    3.214 
   172  172   -0.1694    0.0847    0.0000   0.03389  5.8110E-05  2.4944E-06  5.8163E-05    2.458 
   173  173   -0.1694    0.0508    0.0000   0.03389  6.3000E-05  1.5313E-07  6.3000E-05    0.139 
   174  174   -0.1694    0.0169    0.0000   0.03389  6.5288E-05 -4.7477E-06  6.5461E-05   -4.159 
   175  175   -0.1694   -0.0169    0.0000   0.03389  6.4859E-05 -1.2306E-05  6.6016E-05  -10.743 
   176  176   -0.1694   -0.0508    0.0000   0.03389  6.1734E-05 -2.1597E-05  6.5403E-05  -19.282 
   177  177   -0.1694   -0.0847    0.0000   0.03389  5.6040E-05 -3.0490E-05  6.3797E-05  -28.549 
   178  178   -0.1694   -0.1186    0.0000   0.03389  4.7885E-05 -3.6407E-05  6.0153E-05  -37.246 
   179  179   -0.1694   -0.1525    0.0000   0.03389  3.7222E-05 -3.9335E-05  5.4155E-05  -46.581 
   180  180   -0.1694   -0.1864    0.0000   0.03389  2.1976E-05 -2.9742E-05  3.6980E-05  -53.540 
   181  181   -0.1356    0.1864    0.0000   0.03389  1.5693E-05  6.2981E-06  1.6910E-05   21.867 
   182  182   -0.1356    0.1525    0.0000   0.03389  3.1236E-05  1.1241E-05  3.3197E-05   19.793 
   183  183   -0.1356    0.1186    0.0000   0.03389  3.9882E-05  1.4879E-05  4.2567E-05   20.459 
   184  184   -0.1356    0.0847    0.0000   0.03389  4.6021E-05  1.7233E-05  4.9141E-05   20.529 
   185  185   -0.1356    0.0508    0.0000   0.03389  4.9944E-05  1.7334E-05  5.2867E-05   19.140 
   186  186   -0.1356    0.0169    0.0000   0.03389  5.1615E-05  1.3815E-05  5.3431E-05   14.984 
   187  187   -0.1356   -0.0169    0.0000   0.03389  5.0963E-05  5.4940E-06  5.1259E-05    6.153 
   188  188   -0.1356   -0.0508    0.0000   0.03389  4.8027E-05 -7.1841E-06  4.8561E-05   -8.508 
   189  189   -0.1356   -0.0847    0.0000   0.03389  4.3010E-05 -2.0772E-05  4.7764E-05  -25.779 
   190  190   -0.1356   -0.1186    0.0000   0.03389  3.6182E-05 -3.0043E-05  4.7029E-05  -39.704 
   191  191   -0.1356   -0.1525    0.0000   0.03389  2.7600E-05 -3.1057E-05  4.1548E-05  -48.373 
   192  192   -0.1356   -0.1864    0.0000   0.03389  1.6131E-05 -1.7458E-05  2.3770E-05  -47.263 
   193  193   -0.1017    0.1864    0.0000   0.03389  1.6913E-05  1.0540E-05  1.9928E-05   31.931 
   194  194   -0.1017    0.1525    0.0000   0.03389  2.9257E-05  1.8475E-05  3.4602E-05   32.272 
   195  195   -0.1017    0.1186    0.0000   0.03389  3.7272E-05  2.5250E-05  4.5020E-05   34.115 
   196  196   -0.1017    0.0847    0.0000   0.03389  4.2969E-05  3.1115E-05  5.3052E-05   35.909 
   197  197   -0.1017    0.0508    0.0000   0.03389  4.6569E-05  3.4812E-05  5.8143E-05   36.780 
   198  198   -0.1017    0.0169    0.0000   0.03389  4.8006E-05  3.3686E-05  5.8646E-05   35.058 
   199  199   -0.1017   -0.0169    0.0000   0.03389  4.7097E-05  2.3888E-05  5.2809E-05   26.894 
   200  200   -0.1017   -0.0508    0.0000   0.03389  4.3775E-05  3.4304E-06  4.3909E-05    4.481 
   201  201   -0.1017   -0.0847    0.0000   0.03389  3.8415E-05 -2.1501E-05  4.4023E-05  -29.236 
   202  202   -0.1017   -0.1186    0.0000   0.03389  3.1696E-05 -3.8480E-05  4.9853E-05  -50.522 
   203  203   -0.1017   -0.1525    0.0000   0.03389  2.3907E-05 -4.0813E-05  4.7299E-05  -59.639 
   204  204   -0.1017   -0.1864    0.0000   0.03389  1.4146E-05 -2.7130E-05  3.0597E-05  -62.461 
   205  205   -0.0678    0.1864    0.0000   0.03389  1.7218E-05  1.4485E-05  2.2501E-05   40.072 
   206  206   -0.0678    0.1525    0.0000   0.03389  2.8794E-05  2.5731E-05  3.8616E-05   41.785 
   207  207   -0.0678    0.1186    0.0000   0.03389  3.6524E-05  3.6318E-05  5.1508E-05   44.838 
   208  208   -0.0678    0.0847    0.0000   0.03389  4.2130E-05  4.7240E-05  6.3298E-05   48.273 
   209  209   -0.0678    0.0508    0.0000   0.03389  4.5801E-05  5.7557E-05  7.3556E-05   51.489 
   210  210   -0.0678    0.0169    0.0000   0.03389  4.7404E-05  6.3439E-05  7.9194E-05   53.231 
   211  211   -0.0678   -0.0169    0.0000   0.03389  4.6468E-05  5.5677E-05  7.2521E-05   50.151 
   212  212   -0.0678   -0.0508    0.0000   0.03389  4.2365E-05  2.0495E-05  4.7062E-05   25.816 
   213  213   -0.0678   -0.0847    0.0000   0.03389  3.5703E-05 -3.1324E-05  4.7496E-05  -41.263 
   214  214   -0.0678   -0.1186    0.0000   0.03389  2.8489E-05 -6.2840E-05  6.8997E-05  -65.612 
   215  215   -0.0678   -0.1525    0.0000   0.03389  2.1262E-05 -6.2661E-05  6.6170E-05  -71.257 
   216  216   -0.0678   -0.1864    0.0000   0.03389  1.2638E-05 -4.0811E-05  4.2723E-05  -72.793 
   217  217   -0.0339    0.1864    0.0000   0.03389  1.7603E-05  1.7871E-05  2.5085E-05   45.432 
   218  218   -0.0339    0.1525    0.0000   0.03389  2.8988E-05  3.2381E-05  4.3461E-05   48.165 
   219  219   -0.0339    0.1186    0.0000   0.03389  3.6716E-05  4.7085E-05  5.9709E-05   52.054 
   220  220   -0.0339    0.0847    0.0000   0.03389  4.2484E-05  6.4428E-05  7.7174E-05   56.599 
   221  221   -0.0339    0.0508    0.0000   0.03389  4.6581E-05  8.5567E-05  9.7424E-05   61.437 
   222  222   -0.0339    0.0169    0.0000   0.03389  4.8982E-05  1.0858E-04  1.1912E-04   65.720 
   223  223   -0.0339   -0.0169    0.0000   0.03389  4.8933E-05  1.1941E-04  1.2905E-04   67.717 
   224  224   -0.0339   -0.0508    0.0000   0.03389  4.3772E-05  6.7285E-05  8.0270E-05   56.954 
   225  225   -0.0339   -0.0847    0.0000   0.03389  3.2695E-05 -7.2673E-05  7.9689E-05  -65.777 
   226  226   -0.0339   -0.1186    0.0000   0.03389  2.4576E-05 -1.2089E-04  1.2337E-04  -78.509 
   227  227   -0.0339   -0.1525    0.0000   0.03389  1.8541E-05 -1.0144E-04  1.0312E-04  -79.642 
   228  228   -0.0339   -0.1864    0.0000   0.03389  1.1221E-05 -6.0544E-05  6.1576E-05  -79.500 
   229  229    0.0000    0.1864    0.0000   0.03389  1.7888E-05  1.9471E-05  2.6440E-05   47.427 
   230  230    0.0000    0.1525    0.0000   0.03389  2.9509E-05  3.7542E-05  4.7751E-05   51.832 
   231  231    0.0000    0.1186    0.0000   0.03389  3.7393E-05  5.5594E-05  6.6999E-05   56.075 
   232  232    0.0000    0.0847    0.0000   0.03389  4.3441E-05  7.8980E-05  9.0139E-05   61.188 
   233  233    0.0000    0.0508    0.0000   0.03389  4.8165E-05  1.1303E-04  1.2286E-04   66.920 
   234  234    0.0000    0.0169    0.0000   0.03389  5.2105E-05  1.6735E-04  1.7528E-04   72.706 
   235  235    0.0000   -0.0169    0.0000   0.03389  5.5735E-05  2.5004E-04  2.5617E-04   77.434 
   236  236    0.0000   -0.0508    0.0000   0.03389  5.4424E-05  2.7704E-04  2.8234E-04   78.886 
   237  237    0.0000   -0.0847    0.0000   0.03389  2.2069E-05 -2.7851E-04  2.7938E-04  -85.469 
   238  238    0.0000   -0.1186    0.0000   0.03389  1.7848E-05 -2.4740E-04  2.4804E-04  -85.874 
   239  239    0.0000   -0.1525    0.0000   0.03389  1.5588E-05 -1.5551E-04  1.5629E-04  -84.276 
   240  240    0.0000   -0.1864    0.0000   0.03389  9.9766E-06 -8.1609E-05  8.2217E-05  -83.030 
   241  241    0.0339    0.1864    0.0000   0.03389  1.8275E-05  2.0197E-05  2.7238E-05   47.860 
   242  242    0.0339    0.1525    0.0000   0.03389  3.0381E-05  4.0937E-05  5.0979E-05   53.420 
   243  243    0.0339    0.1186    0.0000   0.03389  3.8366E-05  5.9499E-05  7.0797E-05   57.185 
   244  244    0.0339    0.0847    0.0000   0.03389  4.4641E-05  8.5483E-05  9.6437E-05   62.426 
   245  245    0.0339    0.0508    0.0000   0.03389  4.9730E-05  1.2597E-04  1.3543E-04   68.457 
   246  246    0.0339    0.0169    0.0000   0.03389  5.4662E-05  1.9974E-04  2.0708E-04   74.695 
   247  247    0.0339   -0.0169    0.0000   0.03389  6.2743E-05  3.7620E-04  3.8140E-04   80.531 
   248  248    0.0339   -0.0508    0.0000   0.03389  9.1332E-05  1.0146E-03  1.0187E-03   84.856 
   249  249    0.0339   -0.0847    0.0000   0.03389 -1.3432E-05 -1.0136E-03  1.0137E-03  -90.759 
   250  250    0.0339   -0.1186    0.0000   0.03389  1.2202E-05 -3.7109E-04  3.7129E-04  -88.117 
   251  251    0.0339   -0.1525    0.0000   0.03389  1.4296E-05 -1.8523E-04  1.8578E-04  -85.587 
   252  252    0.0339   -0.1864    0.0000   0.03389  9.4984E-06 -9.1208E-05  9.1701E-05  -84.055 
   253  253    0.0678    0.1864    0.0000   0.03389  1.9939E-05  3.1447E-05  3.7236E-05   57.623 
   254  254    0.0678    0.1525    0.0000   0.03389  3.1205E-05  3.8985E-05  4.9936E-05   51.325 
   255  255    0.0678    0.1186    0.0000   0.03389  3.9728E-05  5.7651E-05  7.0014E-05   55.429 
   256  256    0.0678    0.0847    0.0000   0.03389  4.6095E-05  8.1105E-05  9.3289E-05   60.389 
   257  257    0.0678    0.0508    0.0000   0.03389  5.0968E-05  1.1525E-04  1.2601E-04   66.142 
   258  258    0.0678    0.0169    0.0000   0.03389  5.4903E-05  1.6956E-04  1.7822E-04   72.058 
   259  259    0.0678   -0.0169    0.0000   0.03389  5.8391E-05  2.5210E-04  2.5877E-04   76.959 
   260  260    0.0678   -0.0508    0.0000   0.03389  5.6819E-05  2.7885E-04  2.8458E-04   78.483 
   261  261    0.0678   -0.0847    0.0000   0.03389  2.4103E-05 -2.7703E-04  2.7807E-04  -85.027 
   262  262    0.0678   -0.1186    0.0000   0.03389  1.9428E-05 -2.4623E-04  2.4700E-04  -85.489 
   263  263    0.0678   -0.1525    0.0000   0.03389  1.6615E-05 -1.5458E-04  1.5547E-04  -83.865 
   264  264    0.0678   -0.1864    0.0000   0.03389  1.0201E-05 -8.0640E-05  8.1282E-05  -82.791 
   265  265    0.1017    0.1864    0.0000   0.03389  1.9575E-05  1.7206E-05  2.6062E-05   41.315 
   266  266    0.1017    0.1525    0.0000   0.03389  3.3247E-05  3.6233E-05  4.9175E-05   47.461 
   267  267    0.1017    0.1186    0.0000   0.03389  4.2018E-05  5.0945E-05  6.6037E-05   50.485 
   268  268    0.1017    0.0847    0.0000   0.03389  4.8485E-05  6.8762E-05  8.4137E-05   54.812 
   269  269    0.1017    0.0508    0.0000   0.03389  5.2900E-05  9.0180E-05  1.0455E-04   59.604 
   270  270    0.1017    0.0169    0.0000   0.03389  5.5281E-05  1.1318E-04  1.2596E-04   63.968 
   271  271    0.1017   -0.0169    0.0000   0.03389  5.4911E-05  1.2367E-04  1.3532E-04   66.059 
   272  272    0.1017   -0.0508    0.0000   0.03389  4.9172E-05  7.0933E-05  8.6310E-05   55.269 
   273  273    0.1017   -0.0847    0.0000   0.03389  3.7303E-05 -6.9794E-05  7.9138E-05  -61.877 
   274  274    0.1017   -0.1186    0.0000   0.03389  2.8199E-05 -1.1877E-04  1.2207E-04  -76.644 
   275  275    0.1017   -0.1525    0.0000   0.03389  2.0937E-05 -9.9832E-05  1.0200E-04  -78.155 
   276  276    0.1017   -0.1864    0.0000   0.03389  1.1684E-05 -5.8526E-05  5.9681E-05  -78.710 
   277  277    0.1356    0.1864    0.0000   0.03389  2.0507E-05  1.2870E-05  2.4211E-05   32.112 
   278  278    0.1356    0.1525    0.0000   0.03389  3.6786E-05  2.9909E-05  4.7411E-05   39.113 
   279  279    0.1356    0.1186    0.0000   0.03389  4.6545E-05  4.2183E-05  6.2816E-05   42.186 
   280  280    0.1356    0.0847    0.0000   0.03389  5.3354E-05  5.4226E-05  7.6073E-05   45.464 
   281  281    0.1356    0.0508    0.0000   0.03389  5.7571E-05  6.5164E-05  8.6953E-05   48.540 
   282  282    0.1356    0.0169    0.0000   0.03389  5.9125E-05  7.1023E-05  9.2412E-05   50.223 
   283  283    0.1356   -0.0169    0.0000   0.03389  5.7599E-05  6.2561E-05  8.5038E-05   47.365 
   284  284    0.1356   -0.0508    0.0000   0.03389  5.2442E-05  2.6133E-05  5.8592E-05   26.488 
   285  285    0.1356   -0.0847    0.0000   0.03389  4.4354E-05 -2.7227E-05  5.2044E-05  -31.544 
   286  286    0.1356   -0.1186    0.0000   0.03389  3.5425E-05 -6.0285E-05  6.9923E-05  -59.561 
   287  287    0.1356   -0.1525    0.0000   0.03389  2.6102E-05 -6.1214E-05  6.6547E-05  -66.906 
   288  288    0.1356   -0.1864    0.0000   0.03389  1.2440E-05 -3.5824E-05  3.7922E-05  -70.851 
   289  289    0.1694    0.1864    0.0000   0.03389  3.1936E-05  1.4399E-05  3.5032E-05   24.269 
   290  290    0.1694    0.1525    0.0000   0.03389  5.0744E-05  2.6367E-05  5.7185E-05   27.457 
   291  291    0.1694    0.1186    0.0000   0.03389  6.1408E-05  3.4112E-05  7.0247E-05   29.052 
   292  292    0.1694    0.0847    0.0000   0.03389  6.9416E-05  4.1873E-05  8.1067E-05   31.099 
   293  293    0.1694    0.0508    0.0000   0.03389  7.4166E-05  4.6492E-05  8.7534E-05   32.082 
   294  294    0.1694    0.0169    0.0000   0.03389  7.5555E-05  4.4813E-05  8.7845E-05   30.673 
   295  295    0.1694   -0.0169    0.0000   0.03389  7.3454E-05  3.2896E-05  8.0483E-05   24.125 
   296  296    0.1694   -0.0508    0.0000   0.03389  6.7938E-05  9.0859E-06  6.8543E-05    7.617 
   297  297    0.1694   -0.0847    0.0000   0.03389  5.9629E-05 -1.9824E-05  6.2838E-05  -18.389 
   298  298    0.1694   -0.1186    0.0000   0.03389  4.9598E-05 -4.0937E-05  6.4310E-05  -39.535 
   299  299    0.1694   -0.1525    0.0000   0.03389  3.9804E-05 -4.9811E-05  6.3762E-05  -51.371 
   300  300    0.1694   -0.1864    0.0000   0.03389  2.4575E-05 -3.7619E-05  4.4934E-05  -56.845 
   301  301    0.2033    0.1864    0.0000   0.03389  5.2407E-05  1.0775E-05  5.3503E-05   11.618 
   302  302    0.2033    0.1525    0.0000   0.03389  7.7616E-05  1.9875E-05  8.0121E-05   14.363 
   303  303    0.2033    0.1186    0.0000   0.03389  9.8566E-05  3.5547E-05  1.0478E-04   19.831 
   304  304    0.2033    0.0847    0.0000   0.03389  1.1244E-04  4.6174E-05  1.2155E-04   22.325 
   305  305    0.2033    0.0508    0.0000   0.03389  1.2043E-04  5.0571E-05  1.3062E-04   22.778 
   306  306    0.2033    0.0169    0.0000   0.03389  1.2267E-04  4.6426E-05  1.3116E-04   20.730 
   307  307    0.2033   -0.0169    0.0000   0.03389  1.1924E-04  3.2384E-05  1.2356E-04   15.194 
   308  308    0.2033   -0.0508    0.0000   0.03389  1.1039E-04  1.0255E-05  1.1087E-04    5.307 
   309  309    0.2033   -0.0847    0.0000   0.03389  9.6634E-05 -1.3288E-05  9.7543E-05   -7.829 
   310  310    0.2033   -0.1186    0.0000   0.03389  7.8510E-05 -2.8876E-05  8.3652E-05  -20.194 
   311  311    0.2033   -0.1525    0.0000   0.03389  5.5102E-05 -2.7568E-05  6.1614E-05  -26.579 
   312  312    0.2033   -0.1864    0.0000   0.03389  3.3122E-05 -2.1127E-05  3.9287E-05  -32.532 
   313  313    0.0339   -0.0678    0.0100   0.02001  2.0538E-04  4.2603E-03  4.2653E-03   87.240 
   314  313    0.0339   -0.0678    0.0300   0.02001  1.9882E-04  3.8428E-03  3.8480E-03   87.038 
   315  313    0.0339   -0.0678    0.0500   0.02001  1.8592E-04  3.3621E-03  3.3673E-03   86.835 
   316  313    0.0339   -0.0678    0.0700   0.02001  1.6682E-04  2.8537E-03  2.8586E-03   86.654 
   317  313    0.0339   -0.0678    0.0901   0.02001  1.4170E-04  2.3087E-03  2.3130E-03   86.488 
   318  313    0.0339   -0.0678    0.1101   0.02001  1.1068E-04  1.7263E-03  1.7298E-03   86.332 
   319  313    0.0339   -0.0678    0.1301   0.02001  7.3695E-05  1.1044E-03  1.1069E-03   86.183 
   320  313    0.0339   -0.0678    0.1501   0.02001  2.8840E-05  4.1673E-04  4.1773E-04   86.041 
   321  314    0.0678    0.2033    0.0882   0.00959  7.1637E-07 -2.2316E-05  2.2327E-05  -88.161 
   322  314    0.0678    0.2033    0.0978   0.00959  9.7944E-07 -2.1225E-05  2.1248E-05  -87.358 
   323  314    0.0678    0.2033    0.1074   0.00959  1.1679E-06 -1.9573E-05  1.9607E-05  -86.585 
   324  314    0.0678    0.2033    0.1170   0.00959  1.2657E-06 -1.7383E-05  1.7429E-05  -85.836 
   325  314    0.0678    0.2033    0.1265   0.00959  1.2573E-06 -1.4675E-05  1.4729E-05  -85.103 
   326  314    0.0678    0.2033    0.1361   0.00959  1.1265E-06 -1.1453E-05  1.1508E-05  -84.382 
   327  314    0.0678    0.2033    0.1457   0.00959  8.5301E-07 -7.6863E-06  7.7335E-06  -83.667 
   328  314    0.0678    0.2033    0.1553   0.00959  3.8339E-07 -3.1085E-06  3.1321E-06  -82.969 
   329  315    0.0678    0.2033    0.0115   0.00959 -7.3446E-07 -4.7240E-06  4.7807E-06  -98.837 
   330  315    0.0678    0.2033    0.0211   0.00959 -1.2015E-06 -1.0717E-05  1.0784E-05  -96.397 
   331  315    0.0678    0.2033    0.0306   0.00959 -1.1967E-06 -1.4936E-05  1.4984E-05  -94.581 
   332  315    0.0678    0.2033    0.0402   0.00959 -9.9601E-07 -1.8097E-05  1.8124E-05  -93.150 
   333  315    0.0678    0.2033    0.0498   0.00959 -6.9032E-07 -2.0383E-05  2.0394E-05  -91.940 
   334  315    0.0678    0.2033    0.0594   0.00959 -3.3306E-07 -2.1891E-05  2.1894E-05  -90.872 
   335  315    0.0678    0.2033    0.0690   0.00959  3.8607E-08 -2.2686E-05  2.2686E-05  -89.902 
   336  315    0.0678    0.2033    0.0786   0.00959  3.9616E-07 -2.2814E-05  2.2817E-05  -89.005 






                               ---------- POWER BUDGET ---------
                               INPUT POWER   =  1.0269E-04 Watts
                               RADIATED POWER=  1.0269E-04 Watts
                               STRUCTURE LOSS=  0.0000E+00 Watts
                               NETWORK LOSS  =  0.0000E+00 Watts
                               EFFICIENCY    =  100.00 Percent