


                                __________________________________________
                               |                                          |
                               | NUMERICAL ELECTROMAGNETICS CODE (nec2++) |
                               | Translated to 'C++' in Double Precision  |
                               |        Version 1.5.1 [2014-01-02]        |
                               |__________________________________________|



                                -------- STRUCTURE SPECIFICATION --------
                                COORDINATES MUST BE INPUT IN
                                METERS OR BE SCALED TO METERS
                                BEFORE STRUCTURE INPUT IS ENDED
  WIRE                                                                                 SEG FIRST  LAST  TAG
   No:        X1         Y1         Z1         X2         Y2         Z2       RADIUS   No:   SEG   SEG  No:

     1      3.8400     0.8400     0.9200     3.8400     0.8400     1.1500     0.0010     8     1     8    1
     2      3.8400     0.8400     0.6900     3.8400     0.8400     0.9200     0.0010     8     9    16    2
     STRUCTURE SCALED BY FACTOR:    1.00000

     TOTAL SEGMENTS USED: 16   SEGMENTS IN A SYMMETRIC CELL: 16   SYMMETRY FLAG: 0


                               ---------- SEGMENTATION DATA ----------
                                        COORDINATES IN METERS
                            I+ AND I- INDICATE THE SEGMENTS BEFORE AND AFTER I

   SEG    COORDINATES OF SEGM CENTER     SEGM    ORIENTATION ANGLES    WIRE    CONNECTION DATA   TAG
   No:       X         Y         Z      LENGTH     ALPHA      BETA    RADIUS    I-     I    I+   NO:
     1    3.8400    0.8400    0.9344    0.0287   90.0000    0.0000    0.0010    16     1     2     1
     2    3.8400    0.8400    0.9631    0.0287   90.0000    0.0000    0.0010     1     2     3     1
     3    3.8400    0.8400    0.9919    0.0287   90.0000    0.0000    0.0010     2     3     4     1
     4    3.8400    0.8400    1.0206    0.0288   90.0000    0.0000    0.0010     3     4     5     1
     5    3.8400    0.8400    1.0494    0.0288   90.0000    0.0000    0.0010     4     5     6     1
     6    3.8400    0.8400    1.0781    0.0288   90.0000    0.0000    0.0010     5     6     7     1
     7    3.8400    0.8400    1.1069    0.0288   90.0000    0.0000    0.0010     6     7     8     1
     8    3.8400    0.8400    1.1356    0.0287   90.0000    0.0000    0.0010     7     8     0     1
     9    3.8400    0.8400    0.7044    0.0288   90.0000    0.0000    0.0010     0     9    10     2
    10    3.8400    0.8400    0.7331    0.0288   90.0000    0.0000    0.0010     9    10    11     2
    11    3.8400    0.8400    0.7619    0.0288   90.0000    0.0000    0.0010    10    11    12     2
    12    3.8400    0.8400    0.7906    0.0288   90.0000    0.0000    0.0010    11    12    13     2
    13    3.8400    0.8400    0.8194    0.0288   90.0000    0.0000    0.0010    12    13    14     2
    14    3.8400    0.8400    0.8481    0.0288   90.0000    0.0000    0.0010    13    14    15     2
    15    3.8400    0.8400    0.8769    0.0288   90.0000    0.0000    0.0010    14    15    16     2
    16    3.8400    0.8400    0.9056    0.0287   90.0000    0.0000    0.0010    15    16     1     2



*****  DATA CARD N0.   1 GN  -1     0     0     0  0.00000E+00  0.00000E+00  0.00000E+00  0.00000E+00  0.00000E+00  0.00000E+00
*****  DATA CARD N0.   2 FR   0     1     0     0  1.00000E+02  1.00000E+01  0.00000E+00  0.00000E+00  0.00000E+00  0.00000E+00
*****  DATA CARD N0.   3 EX   0     1     1     0  1.00000E+00  0.00000E+00  0.00000E+00  0.00000E+00  0.00000E+00  0.00000E+00
*****  DATA CARD N0.   4 RP   0    46    90  1000  0.00000E+00  0.00000E+00  4.00000E+00  4.00000E+00  0.00000E+00  0.00000E+00


                               --------- FREQUENCY --------
                               FREQUENCY=  1.0000E+02 MHZ
                               WAVELENGTH= 2.9980E+00 METERS


                        APPROXIMATE INTEGRATION EMPLOYED FOR SEGMENTS
                        THAT ARE MORE THAN 1.000 WAVELENGTHS APART
WARNING- SEGMENT[0] LENGTH TOO SMALL (0.009590)
WARNING- SEGMENT[1] LENGTH TOO SMALL (0.009590)
WARNING- SEGMENT[2] LENGTH TOO SMALL (0.009590)
WARNING- SEGMENT[3] LENGTH TOO SMALL (0.009590)
WARNING- SEGMENT[4] LENGTH TOO SMALL (0.009590)
WARNING- SEGMENT[5] LENGTH TOO SMALL (0.009590)
WARNING- SEGMENT[6] LENGTH TOO SMALL (0.009590)
WARNING- SEGMENT[7] LENGTH TOO SMALL (0.009590)
WARNING- SEGMENT[8] LENGTH TOO SMALL (0.009590)
WARNING- SEGMENT[9] LENGTH TOO SMALL (0.009590)
WARNING- SEGMENT[10] LENGTH TOO SMALL (0.009590)
WARNING- SEGMENT[11] LENGTH TOO SMALL (0.009590)
WARNING- SEGMENT[12] LENGTH TOO SMALL (0.009590)
WARNING- SEGMENT[13] LENGTH TOO SMALL (0.009590)
WARNING- SEGMENT[14] LENGTH TOO SMALL (0.009590)
WARNING- SEGMENT[15] LENGTH TOO SMALL (0.009590)



                          ------ STRUCTURE IMPEDANCE LOADING ------
                                 THIS STRUCTURE IS NOT LOADED



                            -------- ANTENNA ENVIRONMENT --------
                            FREE SPACE



                             ---------- MATRIX TIMING ----------
                               FILL= 0 msec  FACTOR: 0 msec


                      ----- ANTENNA INPUT PARAMETERS -----
  TAG   SEG       VOLTAGE (VOLTS)         CURRENT (AMPS)         IMPEDANCE (OHMS)        ADMITTANCE (MHOS)     POWER
  NO.   NO.     REAL      IMAGINARY     REAL      IMAGINARY     REAL      IMAGINARY    REAL       IMAGINARY   (WATTS)
   1     1  1.0000E+00  0.0000E+00  4.4650E-06  9.5791E-04  4.8658E+00 -1.0439E+03  4.4650E-06  9.5791E-04  2.2325E-06







                        ----- CURRENTS AND LOCATION -----
                            DISTANCES IN WAVELENGTHS 

   SEG  TAG    COORDINATES OF SEGM CENTER     SEGM    ------------- CURRENT (AMPS) -------------
   No:  No:       X         Y         Z      LENGTH     REAL      IMAGINARY    MAGN        PHASE
     1    1    1.2809    0.2802    0.3117   0.00959  4.4650E-06  9.5791E-04  9.5792E-04   89.733 
     2    1    1.2809    0.2802    0.3213   0.00959  4.3392E-06  8.3529E-04  8.3531E-04   89.702 
     3    1    1.2809    0.2802    0.3309   0.00959  4.0867E-06  7.0275E-04  7.0276E-04   89.667 
     4    1    1.2809    0.2802    0.3404   0.00959  3.7062E-06  5.8071E-04  5.8072E-04   89.634 
     5    1    1.2809    0.2802    0.3500   0.00959  3.1944E-06  4.6109E-04  4.6111E-04   89.603 
     6    1    1.2809    0.2802    0.3596   0.00959  2.5451E-06  3.4112E-04  3.4113E-04   89.573 
     7    1    1.2809    0.2802    0.3692   0.00959  1.7439E-06  2.1835E-04  2.1835E-04   89.542 
     8    1    1.2809    0.2802    0.3788   0.00959  7.1984E-07  8.4693E-05  8.4697E-05   89.513 
     9    2    1.2809    0.2802    0.2350   0.00959  7.1942E-07  7.5798E-05  7.5801E-05   89.456 
    10    2    1.2809    0.2802    0.2445   0.00959  1.7430E-06  1.9521E-04  1.9521E-04   89.488 
    11    2    1.2809    0.2802    0.2541   0.00959  2.5440E-06  3.0455E-04  3.0456E-04   89.521 
    12    2    1.2809    0.2802    0.2637   0.00959  3.1933E-06  4.1088E-04  4.1089E-04   89.555 
    13    2    1.2809    0.2802    0.2733   0.00959  3.7052E-06  5.1602E-04  5.1603E-04   89.589 
    14    2    1.2809    0.2802    0.2829   0.00959  4.0860E-06  6.2152E-04  6.2154E-04   89.623 
    15    2    1.2809    0.2802    0.2925   0.00959  4.3387E-06  7.2981E-04  7.2982E-04   89.659 
    16    2    1.2809    0.2802    0.3021   0.00959  4.4648E-06  8.4879E-04  8.4880E-04   89.699 






                               ---------- POWER BUDGET ---------
                               INPUT POWER   =  2.2325E-06 Watts
                               RADIATED POWER=  2.2325E-06 Watts
                               STRUCTURE LOSS=  0.0000E+00 Watts
                               NETWORK LOSS  =  0.0000E+00 Watts
                               EFFICIENCY    =  100.00 Percent


                         ----- RADIATION PATTERNS -----
 ---- ANGLES -----     ----- POWER GAINS -----       ---- POLARIZATION ----   ---- E(THETA) ----    ----- E(PHI) ------
  THETA      PHI       VERTC   HORIZ   TOTAL       AXIAL      TILT  SENSE   MAGNITUDE    PHASE    MAGNITUDE     PHASE
 DEGREES   DEGREES        DB       DB       DB       RATIO   DEGREES            VOLTS/M   DEGREES     VOLTS/M   DEGREES
    0.00      0.00   -999.99  -999.99  -999.99      0.0000      0.00         0.0000E+00      0.00  0.0000E+00      0.00
    4.00      0.00    -21.51  -999.99   -21.51      0.0000      0.00 LINEAR  9.7180E-04    -37.42  0.0000E+00      0.00
    8.00      0.00    -15.51  -999.99   -15.51      0.0000      0.00 LINEAR  1.9394E-03     -6.22  0.0000E+00      0.00
   12.00      0.00    -12.02  -999.99   -12.02      0.0000      0.00 LINEAR  2.8988E-03     24.13  0.0000E+00      0.00
   16.00      0.00     -9.57  -999.99    -9.57      0.0000      0.00 LINEAR  3.8456E-03     53.48  0.0000E+00      0.00
   20.00      0.00     -7.69  -999.99    -7.69      0.0000      0.00 LINEAR  4.7758E-03     81.70  0.0000E+00      0.00
   24.00      0.00     -6.17  -999.99    -6.17      0.0000     -0.00 LINEAR  5.6850E-03    108.63  0.0000E+00      0.00
   28.00      0.00     -4.92  -999.99    -4.92      0.0000     -0.00 LINEAR  6.5693E-03    134.16  0.0000E+00      0.00
   32.00      0.00     -3.85  -999.99    -3.85      0.0000     -0.00 LINEAR  7.4243E-03    158.16  0.0000E+00      0.00
   36.00      0.00     -2.94  -999.99    -2.94      0.0000     -0.00 LINEAR  8.2459E-03   -179.49  0.0000E+00      0.00
   40.00      0.00     -2.15  -999.99    -2.15      0.0000     -0.00 LINEAR  9.0300E-03   -158.90  0.0000E+00      0.00
   44.00      0.00     -1.47  -999.99    -1.47      0.0000     -0.00 LINEAR  9.7726E-03   -140.17  0.0000E+00      0.00
   48.00      0.00     -0.87  -999.99    -0.87      0.0000     -0.00 LINEAR  1.0470E-02   -123.39  0.0000E+00      0.00
   52.00      0.00     -0.35  -999.99    -0.35      0.0000     -0.00 LINEAR  1.1117E-02   -108.63  0.0000E+00      0.00
   56.00      0.00      0.11  -999.99     0.11      0.0000     -0.00 LINEAR  1.1712E-02    -95.99  0.0000E+00      0.00
   60.00      0.00      0.50  -999.99     0.50      0.0000      0.00 LINEAR  1.2250E-02    -85.50  0.0000E+00      0.00
   64.00      0.00      0.83  -999.99     0.83      0.0000      0.00 LINEAR  1.2729E-02    -77.24  0.0000E+00      0.00
   68.00      0.00      1.11  -999.99     1.11      0.0000      0.00 LINEAR  1.3145E-02    -71.23  0.0000E+00      0.00
   72.00      0.00      1.34  -999.99     1.34      0.0000      0.00 LINEAR  1.3496E-02    -67.50  0.0000E+00      0.00
   76.00      0.00      1.52  -999.99     1.52      0.0000      0.00 LINEAR  1.3779E-02    -66.08  0.0000E+00      0.00
   80.00      0.00      1.65  -999.99     1.65      0.0000      0.00 LINEAR  1.3993E-02    -66.97  0.0000E+00      0.00
   84.00      0.00      1.74  -999.99     1.74      0.0000      0.00 LINEAR  1.4137E-02    -70.17  0.0000E+00      0.00
   88.00      0.00      1.78  -999.99     1.78      0.0000      0.00 LINEAR  1.4209E-02    -75.65  0.0000E+00      0.00
   92.00      0.00      1.78  -999.99     1.78      0.0000      0.00 LINEAR  1.4209E-02    -83.40  0.0000E+00      0.00
   96.00      0.00      1.74  -999.99     1.74      0.0000     -0.00 LINEAR  1.4137E-02    -93.38  0.0000E+00      0.00
  100.00      0.00      1.65  -999.99     1.65      0.0000     -0.00 LINEAR  1.3994E-02   -105.53  0.0000E+00      0.00
  104.00      0.00      1.52  -999.99     1.52      0.0000     -0.00 LINEAR  1.3779E-02   -119.81  0.0000E+00      0.00
  108.00      0.00      1.34  -999.99     1.34      0.0000     -0.00 LINEAR  1.3496E-02   -136.13  0.0000E+00      0.00
  112.00      0.00      1.11  -999.99     1.11      0.0000     -0.00 LINEAR  1.3145E-02   -154.42  0.0000E+00      0.00
  116.00      0.00      0.83  -999.99     0.83      0.0000     -0.00 LINEAR  1.2729E-02   -174.59  0.0000E+00      0.00
  120.00      0.00      0.50  -999.99     0.50      0.0000     -0.00 LINEAR  1.2251E-02    163.46  0.0000E+00      0.00
  124.00      0.00      0.11  -999.99     0.11      0.0000     -0.00 LINEAR  1.1713E-02    139.83  0.0000E+00      0.00
  128.00      0.00     -0.35  -999.99    -0.35      0.0000     -0.00 LINEAR  1.1118E-02    114.64  0.0000E+00      0.00
  132.00      0.00     -0.87  -999.99    -0.87      0.0000      0.00 LINEAR  1.0470E-02     88.02  0.0000E+00      0.00
  136.00      0.00     -1.47  -999.99    -1.47      0.0000      0.00 LINEAR  9.7735E-03     60.08  0.0000E+00      0.00
  140.00      0.00     -2.15  -999.99    -2.15      0.0000      0.00 LINEAR  9.0309E-03     30.98  0.0000E+00      0.00
  144.00      0.00     -2.94  -999.99    -2.94      0.0000      0.00 LINEAR  8.2468E-03      0.84  0.0000E+00      0.00
  148.00      0.00     -3.85  -999.99    -3.85      0.0000      0.00 LINEAR  7.4251E-03    -30.17  0.0000E+00      0.00
  152.00      0.00     -4.92  -999.99    -4.92      0.0000      0.00 LINEAR  6.5700E-03    -61.92  0.0000E+00      0.00
  156.00      0.00     -6.17  -999.99    -6.17      0.0000     -0.00 LINEAR  5.6857E-03    -94.25  0.0000E+00      0.00
  160.00      0.00     -7.68  -999.99    -7.68      0.0000     -0.00 LINEAR  4.7763E-03   -126.99  0.0000E+00      0.00
  164.00      0.00     -9.57  -999.99    -9.57      0.0000     -0.00 LINEAR  3.8461E-03   -160.00  0.0000E+00      0.00
  168.00      0.00    -12.02  -999.99   -12.02      0.0000     -0.00 LINEAR  2.8991E-03    166.90  0.0000E+00      0.00
  172.00      0.00    -15.51  -999.99   -15.51      0.0000     -0.00 LINEAR  1.9397E-03    133.86  0.0000E+00      0.00
  176.00      0.00    -21.51  -999.99   -21.51      0.0000     -0.00 LINEAR  9.7192E-04    101.04  0.0000E+00      0.00
  180.00      0.00   -999.99  -999.99  -999.99      0.0000      0.00         1.4220E-13   -111.40  0.0000E+00      0.00
    0.00      4.00   -999.99  -999.99  -999.99      0.0000      0.00         0.0000E+00      0.00  0.0000E+00      0.00
    4.00      4.00    -21.51  -999.99   -21.51      0.0000      0.00 LINEAR  9.7180E-04    -37.01  0.0000E+00      0.00
    8.00      4.00    -15.51  -999.99   -15.51      0.0000      0.00 LINEAR  1.9394E-03     -5.40  0.0000E+00      0.00
   12.00      4.00    -12.02  -999.99   -12.02      0.0000      0.00 LINEAR  2.8988E-03     25.36  0.0000E+00      0.00
   16.00      4.00     -9.57  -999.99    -9.57      0.0000      0.00 LINEAR  3.8456E-03     55.11  0.0000E+00      0.00
   20.00      4.00     -7.69  -999.99    -7.69      0.0000      0.00 LINEAR  4.7758E-03     83.72  0.0000E+00      0.00
   24.00      4.00     -6.17  -999.99    -6.17      0.0000     -0.00 LINEAR  5.6850E-03    111.04  0.0000E+00      0.00
   28.00      4.00     -4.92  -999.99    -4.92      0.0000     -0.00 LINEAR  6.5693E-03    136.94  0.0000E+00      0.00
   32.00      4.00     -3.85  -999.99    -3.85      0.0000     -0.00 LINEAR  7.4243E-03    161.30  0.0000E+00      0.00
   36.00      4.00     -2.94  -999.99    -2.94      0.0000     -0.00 LINEAR  8.2459E-03   -176.01  0.0000E+00      0.00
   40.00      4.00     -2.15  -999.99    -2.15      0.0000     -0.00 LINEAR  9.0300E-03   -155.10  0.0000E+00      0.00
   44.00      4.00     -1.47  -999.99    -1.47      0.0000     -0.00 LINEAR  9.7726E-03   -136.06  0.0000E+00      0.00
   48.00      4.00     -0.87  -999.99    -0.87      0.0000     -0.00 LINEAR  1.0470E-02   -118.99  0.0000E+00      0.00
   52.00      4.00     -0.35  -999.99    -0.35      0.0000     -0.00 LINEAR  1.1117E-02   -103.97  0.0000E+00      0.00
   56.00      4.00      0.11  -999.99     0.11      0.0000     -0.00 LINEAR  1.1712E-02    -91.08  0.0000E+00      0.00
   60.00      4.00      0.50  -999.99     0.50      0.0000      0.00 LINEAR  1.2250E-02    -80.38  0.0000E+00      0.00
   64.00      4.00      0.83  -999.99     0.83      0.0000      0.00 LINEAR  1.2729E-02    -71.92  0.0000E+00      0.00
   68.00      4.00      1.11  -999.99     1.11      0.0000      0.00 LINEAR  1.3145E-02    -65.74  0.0000E+00      0.00
   72.00      4.00      1.34  -999.99     1.34      0.0000      0.00 LINEAR  1.3496E-02    -61.88  0.0000E+00      0.00
   76.00      4.00      1.52  -999.99     1.52      0.0000      0.00 LINEAR  1.3779E-02    -60.34  0.0000E+00      0.00
   80.00      4.00      1.65  -999.99     1.65      0.0000      0.00 LINEAR  1.3993E-02    -61.15  0.0000E+00      0.00
   84.00      4.00      1.74  -999.99     1.74      0.0000      0.00 LINEAR  1.4137E-02    -64.28  0.0000E+00      0.00
   88.00      4.00      1.78  -999.99     1.78      0.0000      0.00 LINEAR  1.4209E-02    -69.74  0.0000E+00      0.00
   92.00      4.00      1.78  -999.99     1.78      0.0000      0.00 LINEAR  1.4209E-02    -77.49  0.0000E+00      0.00
   96.00      4.00      1.74  -999.99     1.74      0.0000      0.00 LINEAR  1.4137E-02    -87.50  0.0000E+00      0.00
  100.00      4.00      1.65  -999.99     1.65      0.0000     -0.00 LINEAR  1.3994E-02    -99.71  0.0000E+00      0.00
  104.00      4.00      1.52  -999.99     1.52      0.0000     -0.00 LINEAR  1.3779E-02   -114.07  0.0000E+00      0.00
  108.00      4.00      1.34  -999.99     1.34      0.0000     -0.00 LINEAR  1.3496E-02   -130.50  0.0000E+00      0.00
  112.00      4.00      1.11  -999.99     1.11      0.0000     -0.00 LINEAR  1.3145E-02   -148.94  0.0000E+00      0.00
  116.00      4.00      0.83  -999.99     0.83      0.0000     -0.00 LINEAR  1.2729E-02   -169.27  0.0000E+00      0.00
  120.00      4.00      0.50  -999.99     0.50      0.0000     -0.00 LINEAR  1.2251E-02    168.58  0.0000E+00      0.00
  124.00      4.00      0.11  -999.99     0.11      0.0000     -0.00 LINEAR  1.1713E-02    144.73  0.0000E+00      0.00
  128.00      4.00     -0.35  -999.99    -0.35      0.0000     -0.00 LINEAR  1.1118E-02    119.30  0.0000E+00      0.00
  132.00      4.00     -0.87  -999.99    -0.87      0.0000     -0.00 LINEAR  1.0470E-02     92.41  0.0000E+00      0.00
  136.00      4.00     -1.47  -999.99    -1.47      0.0000      0.00 LINEAR  9.7735E-03     64.19  0.0000E+00      0.00
  140.00      4.00     -2.15  -999.99    -2.15      0.0000      0.00 LINEAR  9.0309E-03     34.78  0.0000E+00      0.00
  144.00      4.00     -2.94  -999.99    -2.94      0.0000      0.00 LINEAR  8.2468E-03      4.32  0.0000E+00      0.00
  148.00      4.00     -3.85  -999.99    -3.85      0.0000      0.00 LINEAR  7.4251E-03    -27.04  0.0000E+00      0.00
  152.00      4.00     -4.92  -999.99    -4.92      0.0000      0.00 LINEAR  6.5700E-03    -59.15  0.0000E+00      0.00
  156.00      4.00     -6.17  -999.99    -6.17      0.0000     -0.00 LINEAR  5.6857E-03    -91.84  0.0000E+00      0.00
  160.00      4.00     -7.68  -999.99    -7.68      0.0000     -0.00 LINEAR  4.7763E-03   -124.97  0.0000E+00      0.00
  164.00      4.00     -9.57  -999.99    -9.57      0.0000     -0.00 LINEAR  3.8461E-03   -158.37  0.0000E+00      0.00
  168.00      4.00    -12.02  -999.99   -12.02      0.0000     -0.00 LINEAR  2.8991E-03    168.13  0.0000E+00      0.00
  172.00      4.00    -15.51  -999.99   -15.51      0.0000     -0.00 LINEAR  1.9397E-03    134.68  0.0000E+00      0.00
  176.00      4.00    -21.51  -999.99   -21.51      0.0000     -0.00 LINEAR  9.7192E-04    101.45  0.0000E+00      0.00
  180.00      4.00   -999.99  -999.99  -999.99      0.0000      0.00         1.4220E-13   -111.40  0.0000E+00      0.00
    0.00      8.00   -999.99  -999.99  -999.99      0.0000      0.00         0.0000E+00      0.00  0.0000E+00      0.00
    4.00      8.00    -21.51  -999.99   -21.51      0.0000      0.00 LINEAR  9.7180E-04    -36.76  0.0000E+00      0.00
    8.00      8.00    -15.51  -999.99   -15.51      0.0000      0.00 LINEAR  1.9394E-03     -4.89  0.0000E+00      0.00
   12.00      8.00    -12.02  -999.99   -12.02      0.0000      0.00 LINEAR  2.8988E-03     26.11  0.0000E+00      0.00
   16.00      8.00     -9.57  -999.99    -9.57      0.0000      0.00 LINEAR  3.8456E-03     56.11  0.0000E+00      0.00
   20.00      8.00     -7.69  -999.99    -7.69      0.0000      0.00 LINEAR  4.7758E-03     84.96  0.0000E+00      0.00
   24.00      8.00     -6.17  -999.99    -6.17      0.0000     -0.00 LINEAR  5.6850E-03    112.52  0.0000E+00      0.00
   28.00      8.00     -4.92  -999.99    -4.92      0.0000     -0.00 LINEAR  6.5693E-03    138.65  0.0000E+00      0.00
   32.00      8.00     -3.85  -999.99    -3.85      0.0000     -0.00 LINEAR  7.4243E-03    163.22  0.0000E+00      0.00
   36.00      8.00     -2.94  -999.99    -2.94      0.0000     -0.00 LINEAR  8.2459E-03   -173.88  0.0000E+00      0.00
   40.00      8.00     -2.15  -999.99    -2.15      0.0000     -0.00 LINEAR  9.0300E-03   -152.76  0.0000E+00      0.00
   44.00      8.00     -1.47  -999.99    -1.47      0.0000     -0.00 LINEAR  9.7726E-03   -133.53  0.0000E+00      0.00
   48.00      8.00     -0.87  -999.99    -0.87      0.0000     -0.00 LINEAR  1.0470E-02   -116.29  0.0000E+00      0.00
   52.00      8.00     -0.35  -999.99    -0.35      0.0000     -0.00 LINEAR  1.1117E-02   -101.11  0.0000E+00      0.00
   56.00      8.00      0.11  -999.99     0.11      0.0000      0.00 LINEAR  1.1712E-02    -88.07  0.0000E+00      0.00
   60.00      8.00      0.50  -999.99     0.50      0.0000      0.00 LINEAR  1.2250E-02    -77.23  0.0000E+00      0.00
   64.00      8.00      0.83  -999.99     0.83      0.0000      0.00 LINEAR  1.2729E-02    -68.65  0.0000E+00      0.00
   68.00      8.00      1.11  -999.99     1.11      0.0000      0.00 LINEAR  1.3145E-02    -62.37  0.0000E+00      0.00
   72.00      8.00      1.34  -999.99     1.34      0.0000      0.00 LINEAR  1.3496E-02    -58.42  0.0000E+00      0.00
   76.00      8.00      1.52  -999.99     1.52      0.0000      0.00 LINEAR  1.3779E-02    -56.81  0.0000E+00      0.00
   80.00      8.00      1.65  -999.99     1.65      0.0000      0.00 LINEAR  1.3993E-02    -57.56  0.0000E+00      0.00
   84.00      8.00      1.74  -999.99     1.74      0.0000      0.00 LINEAR  1.4137E-02    -60.67  0.0000E+00      0.00
   88.00      8.00      1.78  -999.99     1.78      0.0000      0.00 LINEAR  1.4209E-02    -66.11  0.0000E+00      0.00
   92.00      8.00      1.78  -999.99     1.78      0.0000      0.00 LINEAR  1.4209E-02    -73.86  0.0000E+00      0.00
   96.00      8.00      1.74  -999.99     1.74      0.0000      0.00 LINEAR  1.4137E-02    -83.88  0.0000E+00      0.00
  100.00      8.00      1.65  -999.99     1.65      0.0000     -0.00 LINEAR  1.3994E-02    -96.13  0.0000E+00      0.00
  104.00      8.00      1.52  -999.99     1.52      0.0000     -0.00 LINEAR  1.3779E-02   -110.54  0.0000E+00      0.00
  108.00      8.00      1.34  -999.99     1.34      0.0000     -0.00 LINEAR  1.3496E-02   -127.04  0.0000E+00      0.00
  112.00      8.00      1.11  -999.99     1.11      0.0000     -0.00 LINEAR  1.3145E-02   -145.56  0.0000E+00      0.00
  116.00      8.00      0.83  -999.99     0.83      0.0000     -0.00 LINEAR  1.2729E-02   -166.00  0.0000E+00      0.00
  120.00      8.00      0.50  -999.99     0.50      0.0000     -0.00 LINEAR  1.2251E-02    171.73  0.0000E+00      0.00
  124.00      8.00      0.11  -999.99     0.11      0.0000     -0.00 LINEAR  1.1713E-02    147.75  0.0000E+00      0.00
  128.00      8.00     -0.35  -999.99    -0.35      0.0000     -0.00 LINEAR  1.1118E-02    122.17  0.0000E+00      0.00
  132.00      8.00     -0.87  -999.99    -0.87      0.0000     -0.00 LINEAR  1.0470E-02     95.11  0.0000E+00      0.00
  136.00      8.00     -1.47  -999.99    -1.47      0.0000      0.00 LINEAR  9.7735E-03     66.72  0.0000E+00      0.00
  140.00      8.00     -2.15  -999.99    -2.15      0.0000      0.00 LINEAR  9.0309E-03     37.12  0.0000E+00      0.00
  144.00      8.00     -2.94  -999.99    -2.94      0.0000      0.00 LINEAR  8.2468E-03      6.46  0.0000E+00      0.00
  148.00      8.00     -3.85  -999.99    -3.85      0.0000      0.00 LINEAR  7.4251E-03    -25.11  0.0000E+00      0.00
  152.00      8.00     -4.92  -999.99    -4.92      0.0000      0.00 LINEAR  6.5700E-03    -57.44  0.0000E+00      0.00
  156.00      8.00     -6.17  -999.99    -6.17      0.0000     -0.00 LINEAR  5.6857E-03    -90.36  0.0000E+00      0.00
  160.00      8.00     -7.68  -999.99    -7.68      0.0000     -0.00 LINEAR  4.7763E-03   -123.73  0.0000E+00      0.00
  164.00      8.00     -9.57  -999.99    -9.57      0.0000     -0.00 LINEAR  3.8461E-03   -157.37  0.0000E+00      0.00
  168.00      8.00    -12.02  -999.99   -12.02      0.0000     -0.00 LINEAR  2.8991E-03    168.88  0.0000E+00      0.00
  172.00      8.00    -15.51  -999.99   -15.51      0.0000     -0.00 LINEAR  1.9397E-03    135.18  0.0000E+00      0.00
  176.00      8.00    -21.51  -999.99   -21.51      0.0000     -0.00 LINEAR  9.7192E-04    101.70  0.0000E+00      0.00
  180.00      8.00   -999.99  -999.99  -999.99      0.0000      0.00         1.4220E-13   -111.40  0.0000E+00      0.00
    0.00     12.00   -999.99  -999.99  -999.99      0.0000      0.00         0.0000E+00      0.00  0.0000E+00      0.00
    4.00     12.00    -21.51  -999.99   -21.51      0.0000      0.00 LINEAR  9.7180E-04    -36.66  0.0000E+00      0.00
    8.00     12.00    -15.51  -999.99   -15.51      0.0000      0.00 LINEAR  1.9394E-03     -4.71  0.0000E+00      0.00
   12.00     12.00    -12.02  -999.99   -12.02      0.0000      0.00 LINEAR  2.8988E-03     26.39  0.0000E+00      0.00
   16.00     12.00     -9.57  -999.99    -9.57      0.0000      0.00 LINEAR  3.8456E-03     56.48  0.0000E+00      0.00
   20.00     12.00     -7.69  -999.99    -7.69      0.0000      0.00 LINEAR  4.7758E-03     85.42  0.0000E+00      0.00
   24.00     12.00     -6.17  -999.99    -6.17      0.0000     -0.00 LINEAR  5.6850E-03    113.07  0.0000E+00      0.00
   28.00     12.00     -4.92  -999.99    -4.92      0.0000     -0.00 LINEAR  6.5693E-03    139.28  0.0000E+00      0.00
   32.00     12.00     -3.85  -999.99    -3.85      0.0000     -0.00 LINEAR  7.4243E-03    163.94  0.0000E+00      0.00
   36.00     12.00     -2.94  -999.99    -2.94      0.0000     -0.00 LINEAR  8.2459E-03   -173.09  0.0000E+00      0.00
   40.00     12.00     -2.15  -999.99    -2.15      0.0000     -0.00 LINEAR  9.0300E-03   -151.90  0.0000E+00      0.00
   44.00     12.00     -1.47  -999.99    -1.47      0.0000     -0.00 LINEAR  9.7726E-03   -132.60  0.0000E+00      0.00
   48.00     12.00     -0.87  -999.99    -0.87      0.0000     -0.00 LINEAR  1.0470E-02   -115.29  0.0000E+00      0.00
   52.00     12.00     -0.35  -999.99    -0.35      0.0000     -0.00 LINEAR  1.1117E-02   -100.05  0.0000E+00      0.00
   56.00     12.00      0.11  -999.99     0.11      0.0000      0.00 LINEAR  1.1712E-02    -86.95  0.0000E+00      0.00
   60.00     12.00      0.50  -999.99     0.50      0.0000      0.00 LINEAR  1.2250E-02    -76.07  0.0000E+00      0.00
   64.00     12.00      0.83  -999.99     0.83      0.0000      0.00 LINEAR  1.2729E-02    -67.44  0.0000E+00      0.00
   68.00     12.00      1.11  -999.99     1.11      0.0000      0.00 LINEAR  1.3145E-02    -61.12  0.0000E+00      0.00
   72.00     12.00      1.34  -999.99     1.34      0.0000      0.00 LINEAR  1.3496E-02    -57.14  0.0000E+00      0.00
   76.00     12.00      1.52  -999.99     1.52      0.0000      0.00 LINEAR  1.3779E-02    -55.51  0.0000E+00      0.00
   80.00     12.00      1.65  -999.99     1.65      0.0000      0.00 LINEAR  1.3993E-02    -56.24  0.0000E+00      0.00
   84.00     12.00      1.74  -999.99     1.74      0.0000      0.00 LINEAR  1.4137E-02    -59.33  0.0000E+00      0.00
   88.00     12.00      1.78  -999.99     1.78      0.0000      0.00 LINEAR  1.4209E-02    -64.76  0.0000E+00      0.00
   92.00     12.00      1.78  -999.99     1.78      0.0000      0.00 LINEAR  1.4209E-02    -72.51  0.0000E+00      0.00
   96.00     12.00      1.74  -999.99     1.74      0.0000      0.00 LINEAR  1.4137E-02    -82.54  0.0000E+00      0.00
  100.00     12.00      1.65  -999.99     1.65      0.0000     -0.00 LINEAR  1.3994E-02    -94.80  0.0000E+00      0.00
  104.00     12.00      1.52  -999.99     1.52      0.0000     -0.00 LINEAR  1.3779E-02   -109.23  0.0000E+00      0.00
  108.00     12.00      1.34  -999.99     1.34      0.0000     -0.00 LINEAR  1.3496E-02   -125.76  0.0000E+00      0.00
  112.00     12.00      1.11  -999.99     1.11      0.0000     -0.00 LINEAR  1.3145E-02   -144.32  0.0000E+00      0.00
  116.00     12.00      0.83  -999.99     0.83      0.0000     -0.00 LINEAR  1.2729E-02   -164.80  0.0000E+00      0.00
  120.00     12.00      0.50  -999.99     0.50      0.0000     -0.00 LINEAR  1.2251E-02    172.89  0.0000E+00      0.00
  124.00     12.00      0.11  -999.99     0.11      0.0000     -0.00 LINEAR  1.1713E-02    148.86  0.0000E+00      0.00
  128.00     12.00     -0.35  -999.99    -0.35      0.0000     -0.00 LINEAR  1.1118E-02    123.23  0.0000E+00      0.00
  132.00     12.00     -0.87  -999.99    -0.87      0.0000     -0.00 LINEAR  1.0470E-02     96.11  0.0000E+00      0.00
  136.00     12.00     -1.47  -999.99    -1.47      0.0000      0.00 LINEAR  9.7735E-03     67.65  0.0000E+00      0.00
  140.00     12.00     -2.15  -999.99    -2.15      0.0000      0.00 LINEAR  9.0309E-03     37.98  0.0000E+00      0.00
  144.00     12.00     -2.94  -999.99    -2.94      0.0000      0.00 LINEAR  8.2468E-03      7.25  0.0000E+00      0.00
  148.00     12.00     -3.85  -999.99    -3.85      0.0000      0.00 LINEAR  7.4251E-03    -24.40  0.0000E+00      0.00
  152.00     12.00     -4.92  -999.99    -4.92      0.0000      0.00 LINEAR  6.5700E-03    -56.81  0.0000E+00      0.00
  156.00     12.00     -6.17  -999.99    -6.17      0.0000      0.00 LINEAR  5.6857E-03    -89.82  0.0000E+00      0.00
  160.00     12.00     -7.68  -999.99    -7.68      0.0000     -0.00 LINEAR  4.7763E-03   -123.27  0.0000E+00      0.00
  164.00     12.00     -9.57  -999.99    -9.57      0.0000     -0.00 LINEAR  3.8461E-03   -157.00  0.0000E+00      0.00
  168.00     12.00    -12.02  -999.99   -12.02      0.0000     -0.00 LINEAR  2.8991E-03    169.16  0.0000E+00      0.00
  172.00     12.00    -15.51  -999.99   -15.51      0.0000     -0.00 LINEAR  1.9397E-03    135.37  0.0000E+00      0.00
  176.00     12.00    -21.51  -999.99   -21.51      0.0000     -0.00 LINEAR  9.7192E-04    101.80  0.0000E+00      0.00
  180.00     12.00   -999.99  -999.99  -999.99      0.0000      0.00         1.4220E-13   -111.40  0.0000E+00      0.00
    0.00     16.00   -999.99  -999.99  -999.99      0.0000      0.00         0.0000E+00      0.00  0.0000E+00      0.00
    4.00     16.00    -21.51  -999.99   -21.51      0.0000      0.00 LINEAR  9.7180E-04    -36.73  0.0000E+00      0.00
    8.00     16.00    -15.51  -999.99   -15.51      0.0000      0.00 LINEAR  1.9394E-03     -4.84  0.0000E+00      0.00
   12.00     16.00    -12.02  -999.99   -12.02      0.0000      0.00 LINEAR  2.8988E-03     26.19  0.0000E+00      0.00
   16.00     16.00     -9.57  -999.99    -9.57      0.0000      0.00 LINEAR  3.8456E-03     56.22  0.0000E+00      0.00
   20.00     16.00     -7.69  -999.99    -7.69      0.0000      0.00 LINEAR  4.7758E-03     85.10  0.0000E+00      0.00
   24.00     16.00     -6.17  -999.99    -6.17      0.0000     -0.00 LINEAR  5.6850E-03    112.68  0.0000E+00      0.00
   28.00     16.00     -4.92  -999.99    -4.92      0.0000     -0.00 LINEAR  6.5693E-03    138.83  0.0000E+00      0.00
   32.00     16.00     -3.85  -999.99    -3.85      0.0000     -0.00 LINEAR  7.4243E-03    163.43  0.0000E+00      0.00
   36.00     16.00     -2.94  -999.99    -2.94      0.0000     -0.00 LINEAR  8.2459E-03   -173.65  0.0000E+00      0.00
   40.00     16.00     -2.15  -999.99    -2.15      0.0000     -0.00 LINEAR  9.0300E-03   -152.51  0.0000E+00      0.00
   44.00     16.00     -1.47  -999.99    -1.47      0.0000     -0.00 LINEAR  9.7726E-03   -133.26  0.0000E+00      0.00
   48.00     16.00     -0.87  -999.99    -0.87      0.0000     -0.00 LINEAR  1.0470E-02   -116.00  0.0000E+00      0.00
   52.00     16.00     -0.35  -999.99    -0.35      0.0000     -0.00 LINEAR  1.1117E-02   -100.80  0.0000E+00      0.00
   56.00     16.00      0.11  -999.99     0.11      0.0000      0.00 LINEAR  1.1712E-02    -87.75  0.0000E+00      0.00
   60.00     16.00      0.50  -999.99     0.50      0.0000      0.00 LINEAR  1.2250E-02    -76.90  0.0000E+00      0.00
   64.00     16.00      0.83  -999.99     0.83      0.0000      0.00 LINEAR  1.2729E-02    -68.30  0.0000E+00      0.00
   68.00     16.00      1.11  -999.99     1.11      0.0000      0.00 LINEAR  1.3145E-02    -62.01  0.0000E+00      0.00
   72.00     16.00      1.34  -999.99     1.34      0.0000      0.00 LINEAR  1.3496E-02    -58.05  0.0000E+00      0.00
   76.00     16.00      1.52  -999.99     1.52      0.0000      0.00 LINEAR  1.3779E-02    -56.44  0.0000E+00      0.00
   80.00     16.00      1.65  -999.99     1.65      0.0000      0.00 LINEAR  1.3993E-02    -57.18  0.0000E+00      0.00
   84.00     16.00      1.74  -999.99     1.74      0.0000      0.00 LINEAR  1.4137E-02    -60.28  0.0000E+00      0.00
   88.00     16.00      1.78  -999.99     1.78      0.0000      0.00 LINEAR  1.4209E-02    -65.72  0.0000E+00      0.00
   92.00     16.00      1.78  -999.99     1.78      0.0000      0.00 LINEAR  1.4209E-02    -73.47  0.0000E+00      0.00
   96.00     16.00      1.74  -999.99     1.74      0.0000      0.00 LINEAR  1.4137E-02    -83.49  0.0000E+00      0.00
  100.00     16.00      1.65  -999.99     1.65      0.0000     -0.00 LINEAR  1.3994E-02    -95.74  0.0000E+00      0.00
  104.00     16.00      1.52  -999.99     1.52      0.0000     -0.00 LINEAR  1.3779E-02   -110.16  0.0000E+00      0.00
  108.00     16.00      1.34  -999.99     1.34      0.0000     -0.00 LINEAR  1.3496E-02   -126.67  0.0000E+00      0.00
  112.00     16.00      1.11  -999.99     1.11      0.0000     -0.00 LINEAR  1.3145E-02   -145.20  0.0000E+00      0.00
  116.00     16.00      0.83  -999.99     0.83      0.0000     -0.00 LINEAR  1.2729E-02   -165.65  0.0000E+00      0.00
  120.00     16.00      0.50  -999.99     0.50      0.0000     -0.00 LINEAR  1.2251E-02    172.07  0.0000E+00      0.00
  124.00     16.00      0.11  -999.99     0.11      0.0000     -0.00 LINEAR  1.1713E-02    148.07  0.0000E+00      0.00
  128.00     16.00     -0.35  -999.99    -0.35      0.0000     -0.00 LINEAR  1.1118E-02    122.47  0.0000E+00      0.00
  132.00     16.00     -0.87  -999.99    -0.87      0.0000     -0.00 LINEAR  1.0470E-02     95.40  0.0000E+00      0.00
  136.00     16.00     -1.47  -999.99    -1.47      0.0000      0.00 LINEAR  9.7735E-03     66.99  0.0000E+00      0.00
  140.00     16.00     -2.15  -999.99    -2.15      0.0000      0.00 LINEAR  9.0309E-03     37.37  0.0000E+00      0.00
  144.00     16.00     -2.94  -999.99    -2.94      0.0000      0.00 LINEAR  8.2468E-03      6.69  0.0000E+00      0.00
  148.00     16.00     -3.85  -999.99    -3.85      0.0000      0.00 LINEAR  7.4251E-03    -24.91  0.0000E+00      0.00
  152.00     16.00     -4.92  -999.99    -4.92      0.0000      0.00 LINEAR  6.5700E-03    -57.26  0.0000E+00      0.00
  156.00     16.00     -6.17  -999.99    -6.17      0.0000     -0.00 LINEAR  5.6857E-03    -90.20  0.0000E+00      0.00
  160.00     16.00     -7.68  -999.99    -7.68      0.0000     -0.00 LINEAR  4.7763E-03   -123.59  0.0000E+00      0.00
  164.00     16.00     -9.57  -999.99    -9.57      0.0000     -0.00 LINEAR  3.8461E-03   -157.26  0.0000E+00      0.00
  168.00     16.00    -12.02  -999.99   -12.02      0.0000     -0.00 LINEAR  2.8991E-03    168.96  0.0000E+00      0.00
  172.00     16.00    -15.51  -999.99   -15.51      0.0000     -0.00 LINEAR  1.9397E-03    135.24  0.0000E+00      0.00
  176.00     16.00    -21.51  -999.99   -21.51      0.0000     -0.00 LINEAR  9.7192E-04    101.73  0.0000E+00      0.00
  180.00     16.00   -999.99  -999.99  -999.99      0.0000      0.00         1.4220E-13   -111.40  0.0000E+00      0.00
    0.00     20.00   -999.99  -999.99  -999.99      0.0000      0.00         0.0000E+00      0.00  0.0000E+00      0.00
    4.00     20.00    -21.51  -999.99   -21.51      0.0000      0.00 LINEAR  9.7180E-04    -36.95  0.0000E+00      0.00
    8.00     20.00    -15.51  -999.99   -15.51      0.0000      0.00 LINEAR  1.9394E-03     -5.29  0.0000E+00      0.00
   12.00     20.00    -12.02  -999.99   -12.02      0.0000      0.00 LINEAR  2.8988E-03     25.52  0.0000E+00      0.00
   16.00     20.00     -9.57  -999.99    -9.57      0.0000      0.00 LINEAR  3.8456E-03     55.33  0.0000E+00      0.00
   20.00     20.00     -7.69  -999.99    -7.69      0.0000      0.00 LINEAR  4.7758E-03     83.98  0.0000E+00      0.00
   24.00     20.00     -6.17  -999.99    -6.17      0.0000     -0.00 LINEAR  5.6850E-03    111.36  0.0000E+00      0.00
   28.00     20.00     -4.92  -999.99    -4.92      0.0000     -0.00 LINEAR  6.5693E-03    137.31  0.0000E+00      0.00
   32.00     20.00     -3.85  -999.99    -3.85      0.0000     -0.00 LINEAR  7.4243E-03    161.71  0.0000E+00      0.00
   36.00     20.00     -2.94  -999.99    -2.94      0.0000     -0.00 LINEAR  8.2459E-03   -175.56  0.0000E+00      0.00
   40.00     20.00     -2.15  -999.99    -2.15      0.0000     -0.00 LINEAR  9.0300E-03   -154.60  0.0000E+00      0.00
   44.00     20.00     -1.47  -999.99    -1.47      0.0000     -0.00 LINEAR  9.7726E-03   -135.52  0.0000E+00      0.00
   48.00     20.00     -0.87  -999.99    -0.87      0.0000     -0.00 LINEAR  1.0470E-02   -118.41  0.0000E+00      0.00
   52.00     20.00     -0.35  -999.99    -0.35      0.0000     -0.00 LINEAR  1.1117E-02   -103.36  0.0000E+00      0.00
   56.00     20.00      0.11  -999.99     0.11      0.0000     -0.00 LINEAR  1.1712E-02    -90.44  0.0000E+00      0.00
   60.00     20.00      0.50  -999.99     0.50      0.0000      0.00 LINEAR  1.2250E-02    -79.71  0.0000E+00      0.00
   64.00     20.00      0.83  -999.99     0.83      0.0000      0.00 LINEAR  1.2729E-02    -71.22  0.0000E+00      0.00
   68.00     20.00      1.11  -999.99     1.11      0.0000      0.00 LINEAR  1.3145E-02    -65.02  0.0000E+00      0.00
   72.00     20.00      1.34  -999.99     1.34      0.0000      0.00 LINEAR  1.3496E-02    -61.14  0.0000E+00      0.00
   76.00     20.00      1.52  -999.99     1.52      0.0000      0.00 LINEAR  1.3779E-02    -59.59  0.0000E+00      0.00
   80.00     20.00      1.65  -999.99     1.65      0.0000      0.00 LINEAR  1.3993E-02    -60.38  0.0000E+00      0.00
   84.00     20.00      1.74  -999.99     1.74      0.0000      0.00 LINEAR  1.4137E-02    -63.51  0.0000E+00      0.00
   88.00     20.00      1.78  -999.99     1.78      0.0000      0.00 LINEAR  1.4209E-02    -68.97  0.0000E+00      0.00
   92.00     20.00      1.78  -999.99     1.78      0.0000      0.00 LINEAR  1.4209E-02    -76.72  0.0000E+00      0.00
   96.00     20.00      1.74  -999.99     1.74      0.0000      0.00 LINEAR  1.4137E-02    -86.72  0.0000E+00      0.00
  100.00     20.00      1.65  -999.99     1.65      0.0000     -0.00 LINEAR  1.3994E-02    -98.94  0.0000E+00      0.00
  104.00     20.00      1.52  -999.99     1.52      0.0000     -0.00 LINEAR  1.3779E-02   -113.31  0.0000E+00      0.00
  108.00     20.00      1.34  -999.99     1.34      0.0000     -0.00 LINEAR  1.3496E-02   -129.76  0.0000E+00      0.00
  112.00     20.00      1.11  -999.99     1.11      0.0000     -0.00 LINEAR  1.3145E-02   -148.21  0.0000E+00      0.00
  116.00     20.00      0.83  -999.99     0.83      0.0000     -0.00 LINEAR  1.2729E-02   -168.58  0.0000E+00      0.00
  120.00     20.00      0.50  -999.99     0.50      0.0000     -0.00 LINEAR  1.2251E-02    169.25  0.0000E+00      0.00
  124.00     20.00      0.11  -999.99     0.11      0.0000     -0.00 LINEAR  1.1713E-02    145.38  0.0000E+00      0.00
  128.00     20.00     -0.35  -999.99    -0.35      0.0000     -0.00 LINEAR  1.1118E-02    119.91  0.0000E+00      0.00
  132.00     20.00     -0.87  -999.99    -0.87      0.0000     -0.00 LINEAR  1.0470E-02     92.99  0.0000E+00      0.00
  136.00     20.00     -1.47  -999.99    -1.47      0.0000      0.00 LINEAR  9.7735E-03     64.73  0.0000E+00      0.00
  140.00     20.00     -2.15  -999.99    -2.15      0.0000      0.00 LINEAR  9.0309E-03     35.28  0.0000E+00      0.00
  144.00     20.00     -2.94  -999.99    -2.94      0.0000      0.00 LINEAR  8.2468E-03      4.78  0.0000E+00      0.00
  148.00     20.00     -3.85  -999.99    -3.85      0.0000      0.00 LINEAR  7.4251E-03    -26.63  0.0000E+00      0.00
  152.00     20.00     -4.92  -999.99    -4.92      0.0000      0.00 LINEAR  6.5700E-03    -58.78  0.0000E+00      0.00
  156.00     20.00     -6.17  -999.99    -6.17      0.0000     -0.00 LINEAR  5.6857E-03    -91.53  0.0000E+00      0.00
  160.00     20.00     -7.68  -999.99    -7.68      0.0000     -0.00 LINEAR  4.7763E-03   -124.70  0.0000E+00      0.00
  164.00     20.00     -9.57  -999.99    -9.57      0.0000     -0.00 LINEAR  3.8461E-03   -158.15  0.0000E+00      0.00
  168.00     20.00    -12.02  -999.99   -12.02      0.0000     -0.00 LINEAR  2.8991E-03    168.29  0.0000E+00      0.00
  172.00     20.00    -15.51  -999.99   -15.51      0.0000     -0.00 LINEAR  1.9397E-03    134.79  0.0000E+00      0.00
  176.00     20.00    -21.51  -999.99   -21.51      0.0000     -0.00 LINEAR  9.7192E-04    101.50  0.0000E+00      0.00
  180.00     20.00   -999.99  -999.99  -999.99      0.0000      0.00         1.4220E-13   -111.40  0.0000E+00      0.00
    0.00     24.00   -999.99  -999.99  -999.99      0.0000      0.00         0.0000E+00      0.00  0.0000E+00      0.00
    4.00     24.00    -21.51  -999.99   -21.51      0.0000      0.00 LINEAR  9.7180E-04    -37.34  0.0000E+00      0.00
    8.00     24.00    -15.51  -999.99   -15.51      0.0000      0.00 LINEAR  1.9394E-03     -6.06  0.0000E+00      0.00
   12.00     24.00    -12.02  -999.99   -12.02      0.0000      0.00 LINEAR  2.8988E-03     24.37  0.0000E+00      0.00
   16.00     24.00     -9.57  -999.99    -9.57      0.0000      0.00 LINEAR  3.8456E-03     53.80  0.0000E+00      0.00
   20.00     24.00     -7.69  -999.99    -7.69      0.0000      0.00 LINEAR  4.7758E-03     82.09  0.0000E+00      0.00
   24.00     24.00     -6.17  -999.99    -6.17      0.0000     -0.00 LINEAR  5.6850E-03    109.11  0.0000E+00      0.00
   28.00     24.00     -4.92  -999.99    -4.92      0.0000     -0.00 LINEAR  6.5693E-03    134.71  0.0000E+00      0.00
   32.00     24.00     -3.85  -999.99    -3.85      0.0000     -0.00 LINEAR  7.4243E-03    158.78  0.0000E+00      0.00
   36.00     24.00     -2.94  -999.99    -2.94      0.0000     -0.00 LINEAR  8.2459E-03   -178.81  0.0000E+00      0.00
   40.00     24.00     -2.15  -999.99    -2.15      0.0000     -0.00 LINEAR  9.0300E-03   -158.15  0.0000E+00      0.00
   44.00     24.00     -1.47  -999.99    -1.47      0.0000     -0.00 LINEAR  9.7726E-03   -139.36  0.0000E+00      0.00
   48.00     24.00     -0.87  -999.99    -0.87      0.0000     -0.00 LINEAR  1.0470E-02   -122.52  0.0000E+00      0.00
   52.00     24.00     -0.35  -999.99    -0.35      0.0000     -0.00 LINEAR  1.1117E-02   -107.72  0.0000E+00      0.00
   56.00     24.00      0.11  -999.99     0.11      0.0000     -0.00 LINEAR  1.1712E-02    -95.02  0.0000E+00      0.00
   60.00     24.00      0.50  -999.99     0.50      0.0000      0.00 LINEAR  1.2250E-02    -84.50  0.0000E+00      0.00
   64.00     24.00      0.83  -999.99     0.83      0.0000      0.00 LINEAR  1.2729E-02    -76.19  0.0000E+00      0.00
   68.00     24.00      1.11  -999.99     1.11      0.0000      0.00 LINEAR  1.3145E-02    -70.15  0.0000E+00      0.00
   72.00     24.00      1.34  -999.99     1.34      0.0000      0.00 LINEAR  1.3496E-02    -66.40  0.0000E+00      0.00
   76.00     24.00      1.52  -999.99     1.52      0.0000      0.00 LINEAR  1.3779E-02    -64.95  0.0000E+00      0.00
   80.00     24.00      1.65  -999.99     1.65      0.0000      0.00 LINEAR  1.3993E-02    -65.83  0.0000E+00      0.00
   84.00     24.00      1.74  -999.99     1.74      0.0000      0.00 LINEAR  1.4137E-02    -69.01  0.0000E+00      0.00
   88.00     24.00      1.78  -999.99     1.78      0.0000      0.00 LINEAR  1.4209E-02    -74.49  0.0000E+00      0.00
   92.00     24.00      1.78  -999.99     1.78      0.0000      0.00 LINEAR  1.4209E-02    -82.24  0.0000E+00      0.00
   96.00     24.00      1.74  -999.99     1.74      0.0000     -0.00 LINEAR  1.4137E-02    -92.22  0.0000E+00      0.00
  100.00     24.00      1.65  -999.99     1.65      0.0000     -0.00 LINEAR  1.3994E-02   -104.39  0.0000E+00      0.00
  104.00     24.00      1.52  -999.99     1.52      0.0000     -0.00 LINEAR  1.3779E-02   -118.68  0.0000E+00      0.00
  108.00     24.00      1.34  -999.99     1.34      0.0000     -0.00 LINEAR  1.3496E-02   -135.02  0.0000E+00      0.00
  112.00     24.00      1.11  -999.99     1.11      0.0000     -0.00 LINEAR  1.3145E-02   -153.34  0.0000E+00      0.00
  116.00     24.00      0.83  -999.99     0.83      0.0000     -0.00 LINEAR  1.2729E-02   -173.54  0.0000E+00      0.00
  120.00     24.00      0.50  -999.99     0.50      0.0000     -0.00 LINEAR  1.2251E-02    164.46  0.0000E+00      0.00
  124.00     24.00      0.11  -999.99     0.11      0.0000     -0.00 LINEAR  1.1713E-02    140.79  0.0000E+00      0.00
  128.00     24.00     -0.35  -999.99    -0.35      0.0000     -0.00 LINEAR  1.1118E-02    115.56  0.0000E+00      0.00
  132.00     24.00     -0.87  -999.99    -0.87      0.0000      0.00 LINEAR  1.0470E-02     88.88  0.0000E+00      0.00
  136.00     24.00     -1.47  -999.99    -1.47      0.0000      0.00 LINEAR  9.7735E-03     60.89  0.0000E+00      0.00
  140.00     24.00     -2.15  -999.99    -2.15      0.0000      0.00 LINEAR  9.0309E-03     31.72  0.0000E+00      0.00
  144.00     24.00     -2.94  -999.99    -2.94      0.0000      0.00 LINEAR  8.2468E-03      1.53  0.0000E+00      0.00
  148.00     24.00     -3.85  -999.99    -3.85      0.0000      0.00 LINEAR  7.4251E-03    -29.56  0.0000E+00      0.00
  152.00     24.00     -4.92  -999.99    -4.92      0.0000      0.00 LINEAR  6.5700E-03    -61.38  0.0000E+00      0.00
  156.00     24.00     -6.17  -999.99    -6.17      0.0000     -0.00 LINEAR  5.6857E-03    -93.78  0.0000E+00      0.00
  160.00     24.00     -7.68  -999.99    -7.68      0.0000     -0.00 LINEAR  4.7763E-03   -126.60  0.0000E+00      0.00
  164.00     24.00     -9.57  -999.99    -9.57      0.0000     -0.00 LINEAR  3.8461E-03   -159.68  0.0000E+00      0.00
  168.00     24.00    -12.02  -999.99   -12.02      0.0000     -0.00 LINEAR  2.8991E-03    167.14  0.0000E+00      0.00
  172.00     24.00    -15.51  -999.99   -15.51      0.0000     -0.00 LINEAR  1.9397E-03    134.02  0.0000E+00      0.00
  176.00     24.00    -21.51  -999.99   -21.51      0.0000     -0.00 LINEAR  9.7192E-04    101.12  0.0000E+00      0.00
  180.00     24.00   -999.99  -999.99  -999.99      0.0000      0.00         1.4220E-13   -111.40  0.0000E+00      0.00
    0.00     28.00   -999.99  -999.99  -999.99      0.0000      0.00         0.0000E+00      0.00  0.0000E+00      0.00
    4.00     28.00    -21.51  -999.99   -21.51      0.0000      0.00 LINEAR  9.7180E-04    -37.88  0.0000E+00      0.00
    8.00     28.00    -15.51  -999.99   -15.51      0.0000      0.00 LINEAR  1.9394E-03     -7.14  0.0000E+00      0.00
   12.00     28.00    -12.02  -999.99   -12.02      0.0000      0.00 LINEAR  2.8988E-03     22.75  0.0000E+00      0.00
   16.00     28.00     -9.57  -999.99    -9.57      0.0000      0.00 LINEAR  3.8456E-03     51.66  0.0000E+00      0.00
   20.00     28.00     -7.69  -999.99    -7.69      0.0000      0.00 LINEAR  4.7758E-03     79.43  0.0000E+00      0.00
   24.00     28.00     -6.17  -999.99    -6.17      0.0000     -0.00 LINEAR  5.6850E-03    105.94  0.0000E+00      0.00
   28.00     28.00     -4.92  -999.99    -4.92      0.0000     -0.00 LINEAR  6.5693E-03    131.06  0.0000E+00      0.00
   32.00     28.00     -3.85  -999.99    -3.85      0.0000     -0.00 LINEAR  7.4243E-03    154.65  0.0000E+00      0.00
   36.00     28.00     -2.94  -999.99    -2.94      0.0000     -0.00 LINEAR  8.2459E-03    176.62  0.0000E+00      0.00
   40.00     28.00     -2.15  -999.99    -2.15      0.0000     -0.00 LINEAR  9.0300E-03   -163.15  0.0000E+00      0.00
   44.00     28.00     -1.47  -999.99    -1.47      0.0000     -0.00 LINEAR  9.7726E-03   -144.77  0.0000E+00      0.00
   48.00     28.00     -0.87  -999.99    -0.87      0.0000     -0.00 LINEAR  1.0470E-02   -128.30  0.0000E+00      0.00
   52.00     28.00     -0.35  -999.99    -0.35      0.0000     -0.00 LINEAR  1.1117E-02   -113.85  0.0000E+00      0.00
   56.00     28.00      0.11  -999.99     0.11      0.0000     -0.00 LINEAR  1.1712E-02   -101.47  0.0000E+00      0.00
   60.00     28.00      0.50  -999.99     0.50      0.0000     -0.00 LINEAR  1.2250E-02    -91.24  0.0000E+00      0.00
   64.00     28.00      0.83  -999.99     0.83      0.0000      0.00 LINEAR  1.2729E-02    -83.19  0.0000E+00      0.00
   68.00     28.00      1.11  -999.99     1.11      0.0000      0.00 LINEAR  1.3145E-02    -77.36  0.0000E+00      0.00
   72.00     28.00      1.34  -999.99     1.34      0.0000      0.00 LINEAR  1.3496E-02    -73.80  0.0000E+00      0.00
   76.00     28.00      1.52  -999.99     1.52      0.0000      0.00 LINEAR  1.3779E-02    -72.50  0.0000E+00      0.00
   80.00     28.00      1.65  -999.99     1.65      0.0000      0.00 LINEAR  1.3993E-02    -73.49  0.0000E+00      0.00
   84.00     28.00      1.74  -999.99     1.74      0.0000      0.00 LINEAR  1.4137E-02    -76.75  0.0000E+00      0.00
   88.00     28.00      1.78  -999.99     1.78      0.0000      0.00 LINEAR  1.4209E-02    -82.27  0.0000E+00      0.00
   92.00     28.00      1.78  -999.99     1.78      0.0000     -0.00 LINEAR  1.4209E-02    -90.02  0.0000E+00      0.00
   96.00     28.00      1.74  -999.99     1.74      0.0000     -0.00 LINEAR  1.4137E-02    -99.96  0.0000E+00      0.00
  100.00     28.00      1.65  -999.99     1.65      0.0000     -0.00 LINEAR  1.3994E-02   -112.05  0.0000E+00      0.00
  104.00     28.00      1.52  -999.99     1.52      0.0000     -0.00 LINEAR  1.3779E-02   -126.23  0.0000E+00      0.00
  108.00     28.00      1.34  -999.99     1.34      0.0000     -0.00 LINEAR  1.3496E-02   -142.42  0.0000E+00      0.00
  112.00     28.00      1.11  -999.99     1.11      0.0000     -0.00 LINEAR  1.3145E-02   -160.56  0.0000E+00      0.00
  116.00     28.00      0.83  -999.99     0.83      0.0000     -0.00 LINEAR  1.2729E-02    179.46  0.0000E+00      0.00
  120.00     28.00      0.50  -999.99     0.50      0.0000     -0.00 LINEAR  1.2251E-02    157.73  0.0000E+00      0.00
  124.00     28.00      0.11  -999.99     0.11      0.0000     -0.00 LINEAR  1.1713E-02    134.34  0.0000E+00      0.00
  128.00     28.00     -0.35  -999.99    -0.35      0.0000     -0.00 LINEAR  1.1118E-02    109.42  0.0000E+00      0.00
  132.00     28.00     -0.87  -999.99    -0.87      0.0000      0.00 LINEAR  1.0470E-02     83.10  0.0000E+00      0.00
  136.00     28.00     -1.47  -999.99    -1.47      0.0000      0.00 LINEAR  9.7735E-03     55.48  0.0000E+00      0.00
  140.00     28.00     -2.15  -999.99    -2.15      0.0000      0.00 LINEAR  9.0309E-03     26.72  0.0000E+00      0.00
  144.00     28.00     -2.94  -999.99    -2.94      0.0000      0.00 LINEAR  8.2468E-03     -3.05  0.0000E+00      0.00
  148.00     28.00     -3.85  -999.99    -3.85      0.0000      0.00 LINEAR  7.4251E-03    -33.68  0.0000E+00      0.00
  152.00     28.00     -4.92  -999.99    -4.92      0.0000      0.00 LINEAR  6.5700E-03    -65.03  0.0000E+00      0.00
  156.00     28.00     -6.17  -999.99    -6.17      0.0000     -0.00 LINEAR  5.6857E-03    -96.94  0.0000E+00      0.00
  160.00     28.00     -7.68  -999.99    -7.68      0.0000     -0.00 LINEAR  4.7763E-03   -129.26  0.0000E+00      0.00
  164.00     28.00     -9.57  -999.99    -9.57      0.0000     -0.00 LINEAR  3.8461E-03   -161.82  0.0000E+00      0.00
  168.00     28.00    -12.02  -999.99   -12.02      0.0000     -0.00 LINEAR  2.8991E-03    165.52  0.0000E+00      0.00
  172.00     28.00    -15.51  -999.99   -15.51      0.0000     -0.00 LINEAR  1.9397E-03    132.93  0.0000E+00      0.00
  176.00     28.00    -21.51  -999.99   -21.51      0.0000     -0.00 LINEAR  9.7192E-04    100.57  0.0000E+00      0.00
  180.00     28.00   -999.99  -999.99  -999.99      0.0000      0.00         1.4220E-13   -111.40  0.0000E+00      0.00
    0.00     32.00   -999.99  -999.99  -999.99      0.0000      0.00         0.0000E+00      0.00  0.0000E+00      0.00
    4.00     32.00    -21.51  -999.99   -21.51      0.0000      0.00 LINEAR  9.7180E-04    -38.58  0.0000E+00      0.00
    8.00     32.00    -15.51  -999.99   -15.51      0.0000      0.00 LINEAR  1.9394E-03     -8.54  0.0000E+00      0.00
   12.00     32.00    -12.02  -999.99   -12.02      0.0000      0.00 LINEAR  2.8988E-03     20.67  0.0000E+00      0.00
   16.00     32.00     -9.57  -999.99    -9.57      0.0000      0.00 LINEAR  3.8456E-03     48.90  0.0000E+00      0.00
   20.00     32.00     -7.69  -999.99    -7.69      0.0000      0.00 LINEAR  4.7758E-03     76.01  0.0000E+00      0.00
   24.00     32.00     -6.17  -999.99    -6.17      0.0000     -0.00 LINEAR  5.6850E-03    101.88  0.0000E+00      0.00
   28.00     32.00     -4.92  -999.99    -4.92      0.0000     -0.00 LINEAR  6.5693E-03    126.36  0.0000E+00      0.00
   32.00     32.00     -3.85  -999.99    -3.85      0.0000     -0.00 LINEAR  7.4243E-03    149.36  0.0000E+00      0.00
   36.00     32.00     -2.94  -999.99    -2.94      0.0000     -0.00 LINEAR  8.2459E-03    170.74  0.0000E+00      0.00
   40.00     32.00     -2.15  -999.99    -2.15      0.0000     -0.00 LINEAR  9.0300E-03   -169.58  0.0000E+00      0.00
   44.00     32.00     -1.47  -999.99    -1.47      0.0000     -0.00 LINEAR  9.7726E-03   -151.71  0.0000E+00      0.00
   48.00     32.00     -0.87  -999.99    -0.87      0.0000     -0.00 LINEAR  1.0470E-02   -135.73  0.0000E+00      0.00
   52.00     32.00     -0.35  -999.99    -0.35      0.0000     -0.00 LINEAR  1.1117E-02   -121.73  0.0000E+00      0.00
   56.00     32.00      0.11  -999.99     0.11      0.0000     -0.00 LINEAR  1.1712E-02   -109.76  0.0000E+00      0.00
   60.00     32.00      0.50  -999.99     0.50      0.0000     -0.00 LINEAR  1.2250E-02    -99.89  0.0000E+00      0.00
   64.00     32.00      0.83  -999.99     0.83      0.0000     -0.00 LINEAR  1.2729E-02    -92.17  0.0000E+00      0.00
   68.00     32.00      1.11  -999.99     1.11      0.0000      0.00 LINEAR  1.3145E-02    -86.63  0.0000E+00      0.00
   72.00     32.00      1.34  -999.99     1.34      0.0000      0.00 LINEAR  1.3496E-02    -83.30  0.0000E+00      0.00
   76.00     32.00      1.52  -999.99     1.52      0.0000      0.00 LINEAR  1.3779E-02    -82.20  0.0000E+00      0.00
   80.00     32.00      1.65  -999.99     1.65      0.0000      0.00 LINEAR  1.3993E-02    -83.33  0.0000E+00      0.00
   84.00     32.00      1.74  -999.99     1.74      0.0000      0.00 LINEAR  1.4137E-02    -86.69  0.0000E+00      0.00
   88.00     32.00      1.78  -999.99     1.78      0.0000     -0.00 LINEAR  1.4209E-02    -92.26  0.0000E+00      0.00
   92.00     32.00      1.78  -999.99     1.78      0.0000     -0.00 LINEAR  1.4209E-02   -100.01  0.0000E+00      0.00
   96.00     32.00      1.74  -999.99     1.74      0.0000     -0.00 LINEAR  1.4137E-02   -109.90  0.0000E+00      0.00
  100.00     32.00      1.65  -999.99     1.65      0.0000     -0.00 LINEAR  1.3994E-02   -121.90  0.0000E+00      0.00
  104.00     32.00      1.52  -999.99     1.52      0.0000     -0.00 LINEAR  1.3779E-02   -135.93  0.0000E+00      0.00
  108.00     32.00      1.34  -999.99     1.34      0.0000     -0.00 LINEAR  1.3496E-02   -151.93  0.0000E+00      0.00
  112.00     32.00      1.11  -999.99     1.11      0.0000     -0.00 LINEAR  1.3145E-02   -169.82  0.0000E+00      0.00
  116.00     32.00      0.83  -999.99     0.83      0.0000     -0.00 LINEAR  1.2729E-02    170.48  0.0000E+00      0.00
  120.00     32.00      0.50  -999.99     0.50      0.0000     -0.00 LINEAR  1.2251E-02    149.07  0.0000E+00      0.00
  124.00     32.00      0.11  -999.99     0.11      0.0000     -0.00 LINEAR  1.1713E-02    126.06  0.0000E+00      0.00
  128.00     32.00     -0.35  -999.99    -0.35      0.0000     -0.00 LINEAR  1.1118E-02    101.55  0.0000E+00      0.00
  132.00     32.00     -0.87  -999.99    -0.87      0.0000      0.00 LINEAR  1.0470E-02     75.67  0.0000E+00      0.00
  136.00     32.00     -1.47  -999.99    -1.47      0.0000      0.00 LINEAR  9.7735E-03     48.54  0.0000E+00      0.00
  140.00     32.00     -2.15  -999.99    -2.15      0.0000      0.00 LINEAR  9.0309E-03     20.30  0.0000E+00      0.00
  144.00     32.00     -2.94  -999.99    -2.94      0.0000      0.00 LINEAR  8.2468E-03     -8.92  0.0000E+00      0.00
  148.00     32.00     -3.85  -999.99    -3.85      0.0000      0.00 LINEAR  7.4251E-03    -38.98  0.0000E+00      0.00
  152.00     32.00     -4.92  -999.99    -4.92      0.0000      0.00 LINEAR  6.5700E-03    -69.72  0.0000E+00      0.00
  156.00     32.00     -6.17  -999.99    -6.17      0.0000     -0.00 LINEAR  5.6857E-03   -101.01  0.0000E+00      0.00
  160.00     32.00     -7.68  -999.99    -7.68      0.0000     -0.00 LINEAR  4.7763E-03   -132.68  0.0000E+00      0.00
  164.00     32.00     -9.57  -999.99    -9.57      0.0000     -0.00 LINEAR  3.8461E-03   -164.58  0.0000E+00      0.00
  168.00     32.00    -12.02  -999.99   -12.02      0.0000     -0.00 LINEAR  2.8991E-03    163.44  0.0000E+00      0.00
  172.00     32.00    -15.51  -999.99   -15.51      0.0000     -0.00 LINEAR  1.9397E-03    131.54  0.0000E+00      0.00
  176.00     32.00    -21.51  -999.99   -21.51      0.0000     -0.00 LINEAR  9.7192E-04     99.88  0.0000E+00      0.00
  180.00     32.00   -999.99  -999.99  -999.99      0.0000      0.00         1.4220E-13   -111.40  0.0000E+00      0.00
    0.00     36.00   -999.99  -999.99  -999.99      0.0000      0.00         0.0000E+00      0.00  0.0000E+00      0.00
    4.00     36.00    -21.51  -999.99   -21.51      0.0000      0.00 LINEAR  9.7180E-04    -39.43  0.0000E+00      0.00
    8.00     36.00    -15.51  -999.99   -15.51      0.0000      0.00 LINEAR  1.9394E-03    -10.23  0.0000E+00      0.00
   12.00     36.00    -12.02  -999.99   -12.02      0.0000      0.00 LINEAR  2.8988E-03     18.14  0.0000E+00      0.00
   16.00     36.00     -9.57  -999.99    -9.57      0.0000      0.00 LINEAR  3.8456E-03     45.55  0.0000E+00      0.00
   20.00     36.00     -7.69  -999.99    -7.69      0.0000      0.00 LINEAR  4.7758E-03     71.85  0.0000E+00      0.00
   24.00     36.00     -6.17  -999.99    -6.17      0.0000     -0.00 LINEAR  5.6850E-03     96.93  0.0000E+00      0.00
   28.00     36.00     -4.92  -999.99    -4.92      0.0000     -0.00 LINEAR  6.5693E-03    120.65  0.0000E+00      0.00
   32.00     36.00     -3.85  -999.99    -3.85      0.0000     -0.00 LINEAR  7.4243E-03    142.91  0.0000E+00      0.00
   36.00     36.00     -2.94  -999.99    -2.94      0.0000     -0.00 LINEAR  8.2459E-03    163.60  0.0000E+00      0.00
   40.00     36.00     -2.15  -999.99    -2.15      0.0000     -0.00 LINEAR  9.0300E-03   -177.40  0.0000E+00      0.00
   44.00     36.00     -1.47  -999.99    -1.47      0.0000     -0.00 LINEAR  9.7726E-03   -160.16  0.0000E+00      0.00
   48.00     36.00     -0.87  -999.99    -0.87      0.0000     -0.00 LINEAR  1.0470E-02   -144.77  0.0000E+00      0.00
   52.00     36.00     -0.35  -999.99    -0.35      0.0000     -0.00 LINEAR  1.1117E-02   -131.31  0.0000E+00      0.00
   56.00     36.00      0.11  -999.99     0.11      0.0000     -0.00 LINEAR  1.1712E-02   -119.84  0.0000E+00      0.00
   60.00     36.00      0.50  -999.99     0.50      0.0000     -0.00 LINEAR  1.2250E-02   -110.42  0.0000E+00      0.00
   64.00     36.00      0.83  -999.99     0.83      0.0000     -0.00 LINEAR  1.2729E-02   -103.10  0.0000E+00      0.00
   68.00     36.00      1.11  -999.99     1.11      0.0000     -0.00 LINEAR  1.3145E-02    -97.91  0.0000E+00      0.00
   72.00     36.00      1.34  -999.99     1.34      0.0000     -0.00 LINEAR  1.3496E-02    -94.87  0.0000E+00      0.00
   76.00     36.00      1.52  -999.99     1.52      0.0000     -0.00 LINEAR  1.3779E-02    -94.00  0.0000E+00      0.00
   80.00     36.00      1.65  -999.99     1.65      0.0000     -0.00 LINEAR  1.3993E-02    -95.31  0.0000E+00      0.00
   84.00     36.00      1.74  -999.99     1.74      0.0000     -0.00 LINEAR  1.4137E-02    -98.78  0.0000E+00      0.00
   88.00     36.00      1.78  -999.99     1.78      0.0000     -0.00 LINEAR  1.4209E-02   -104.41  0.0000E+00      0.00
   92.00     36.00      1.78  -999.99     1.78      0.0000     -0.00 LINEAR  1.4209E-02   -112.16  0.0000E+00      0.00
   96.00     36.00      1.74  -999.99     1.74      0.0000     -0.00 LINEAR  1.4137E-02   -122.00  0.0000E+00      0.00
  100.00     36.00      1.65  -999.99     1.65      0.0000     -0.00 LINEAR  1.3994E-02   -133.87  0.0000E+00      0.00
  104.00     36.00      1.52  -999.99     1.52      0.0000     -0.00 LINEAR  1.3779E-02   -147.73  0.0000E+00      0.00
  108.00     36.00      1.34  -999.99     1.34      0.0000     -0.00 LINEAR  1.3496E-02   -163.49  0.0000E+00      0.00
  112.00     36.00      1.11  -999.99     1.11      0.0000     -0.00 LINEAR  1.3145E-02    178.90  0.0000E+00      0.00
  116.00     36.00      0.83  -999.99     0.83      0.0000     -0.00 LINEAR  1.2729E-02    159.55  0.0000E+00      0.00
  120.00     36.00      0.50  -999.99     0.50      0.0000     -0.00 LINEAR  1.2251E-02    138.54  0.0000E+00      0.00
  124.00     36.00      0.11  -999.99     0.11      0.0000     -0.00 LINEAR  1.1713E-02    115.97  0.0000E+00      0.00
  128.00     36.00     -0.35  -999.99    -0.35      0.0000     -0.00 LINEAR  1.1118E-02     91.97  0.0000E+00      0.00
  132.00     36.00     -0.87  -999.99    -0.87      0.0000      0.00 LINEAR  1.0470E-02     66.63  0.0000E+00      0.00
  136.00     36.00     -1.47  -999.99    -1.47      0.0000      0.00 LINEAR  9.7735E-03     40.09  0.0000E+00      0.00
  140.00     36.00     -2.15  -999.99    -2.15      0.0000      0.00 LINEAR  9.0309E-03     12.48  0.0000E+00      0.00
  144.00     36.00     -2.94  -999.99    -2.94      0.0000      0.00 LINEAR  8.2468E-03    -16.07  0.0000E+00      0.00
  148.00     36.00     -3.85  -999.99    -3.85      0.0000      0.00 LINEAR  7.4251E-03    -45.42  0.0000E+00      0.00
  152.00     36.00     -4.92  -999.99    -4.92      0.0000      0.00 LINEAR  6.5700E-03    -75.43  0.0000E+00      0.00
  156.00     36.00     -6.17  -999.99    -6.17      0.0000     -0.00 LINEAR  5.6857E-03   -105.95  0.0000E+00      0.00
  160.00     36.00     -7.68  -999.99    -7.68      0.0000     -0.00 LINEAR  4.7763E-03   -136.83  0.0000E+00      0.00
  164.00     36.00     -9.57  -999.99    -9.57      0.0000     -0.00 LINEAR  3.8461E-03   -167.93  0.0000E+00      0.00
  168.00     36.00    -12.02  -999.99   -12.02      0.0000     -0.00 LINEAR  2.8991E-03    160.91  0.0000E+00      0.00
  172.00     36.00    -15.51  -999.99   -15.51      0.0000     -0.00 LINEAR  1.9397E-03    129.85  0.0000E+00      0.00
  176.00     36.00    -21.51  -999.99   -21.51      0.0000     -0.00 LINEAR  9.7192E-04     99.03  0.0000E+00      0.00
  180.00     36.00   -999.99  -999.99  -999.99      0.0000      0.00         1.4220E-13   -111.40  0.0000E+00      0.00
    0.00     40.00   -999.99  -999.99  -999.99      0.0000      0.00         0.0000E+00      0.00  0.0000E+00      0.00
    4.00     40.00    -21.51  -999.99   -21.51      0.0000      0.00 LINEAR  9.7180E-04    -40.42  0.0000E+00      0.00
    8.00     40.00    -15.51  -999.99   -15.51      0.0000      0.00 LINEAR  1.9394E-03    -12.21  0.0000E+00      0.00
   12.00     40.00    -12.02  -999.99   -12.02      0.0000      0.00 LINEAR  2.8988E-03     15.18  0.0000E+00      0.00
   16.00     40.00     -9.57  -999.99    -9.57      0.0000      0.00 LINEAR  3.8456E-03     41.62  0.0000E+00      0.00
   20.00     40.00     -7.69  -999.99    -7.69      0.0000      0.00 LINEAR  4.7758E-03     66.97  0.0000E+00      0.00
   24.00     40.00     -6.17  -999.99    -6.17      0.0000     -0.00 LINEAR  5.6850E-03     91.13  0.0000E+00      0.00
   28.00     40.00     -4.92  -999.99    -4.92      0.0000     -0.00 LINEAR  6.5693E-03    113.96  0.0000E+00      0.00
   32.00     40.00     -3.85  -999.99    -3.85      0.0000     -0.00 LINEAR  7.4243E-03    135.35  0.0000E+00      0.00
   36.00     40.00     -2.94  -999.99    -2.94      0.0000     -0.00 LINEAR  8.2459E-03    155.21  0.0000E+00      0.00
   40.00     40.00     -2.15  -999.99    -2.15      0.0000     -0.00 LINEAR  9.0300E-03    173.43  0.0000E+00      0.00
   44.00     40.00     -1.47  -999.99    -1.47      0.0000     -0.00 LINEAR  9.7726E-03   -170.07  0.0000E+00      0.00
   48.00     40.00     -0.87  -999.99    -0.87      0.0000     -0.00 LINEAR  1.0470E-02   -155.37  0.0000E+00      0.00
   52.00     40.00     -0.35  -999.99    -0.35      0.0000     -0.00 LINEAR  1.1117E-02   -142.55  0.0000E+00      0.00
   56.00     40.00      0.11  -999.99     0.11      0.0000     -0.00 LINEAR  1.1712E-02   -131.67  0.0000E+00      0.00
   60.00     40.00      0.50  -999.99     0.50      0.0000     -0.00 LINEAR  1.2250E-02   -122.78  0.0000E+00      0.00
   64.00     40.00      0.83  -999.99     0.83      0.0000     -0.00 LINEAR  1.2729E-02   -115.92  0.0000E+00      0.00
   68.00     40.00      1.11  -999.99     1.11      0.0000     -0.00 LINEAR  1.3145E-02   -111.14  0.0000E+00      0.00
   72.00     40.00      1.34  -999.99     1.34      0.0000     -0.00 LINEAR  1.3496E-02   -108.44  0.0000E+00      0.00
   76.00     40.00      1.52  -999.99     1.52      0.0000     -0.00 LINEAR  1.3779E-02   -107.85  0.0000E+00      0.00
   80.00     40.00      1.65  -999.99     1.65      0.0000     -0.00 LINEAR  1.3993E-02   -109.36  0.0000E+00      0.00
   84.00     40.00      1.74  -999.99     1.74      0.0000     -0.00 LINEAR  1.4137E-02   -112.97  0.0000E+00      0.00
   88.00     40.00      1.78  -999.99     1.78      0.0000     -0.00 LINEAR  1.4209E-02   -118.67  0.0000E+00      0.00
   92.00     40.00      1.78  -999.99     1.78      0.0000     -0.00 LINEAR  1.4209E-02   -126.42  0.0000E+00      0.00
   96.00     40.00      1.74  -999.99     1.74      0.0000     -0.00 LINEAR  1.4137E-02   -136.19  0.0000E+00      0.00
  100.00     40.00      1.65  -999.99     1.65      0.0000     -0.00 LINEAR  1.3994E-02   -147.92  0.0000E+00      0.00
  104.00     40.00      1.52  -999.99     1.52      0.0000     -0.00 LINEAR  1.3779E-02   -161.57  0.0000E+00      0.00
  108.00     40.00      1.34  -999.99     1.34      0.0000     -0.00 LINEAR  1.3496E-02   -177.06  0.0000E+00      0.00
  112.00     40.00      1.11  -999.99     1.11      0.0000     -0.00 LINEAR  1.3145E-02    165.67  0.0000E+00      0.00
  116.00     40.00      0.83  -999.99     0.83      0.0000     -0.00 LINEAR  1.2729E-02    146.72  0.0000E+00      0.00
  120.00     40.00      0.50  -999.99     0.50      0.0000     -0.00 LINEAR  1.2251E-02    126.18  0.0000E+00      0.00
  124.00     40.00      0.11  -999.99     0.11      0.0000     -0.00 LINEAR  1.1713E-02    104.15  0.0000E+00      0.00
  128.00     40.00     -0.35  -999.99    -0.35      0.0000      0.00 LINEAR  1.1118E-02     80.72  0.0000E+00      0.00
  132.00     40.00     -0.87  -999.99    -0.87      0.0000      0.00 LINEAR  1.0470E-02     56.03  0.0000E+00      0.00
  136.00     40.00     -1.47  -999.99    -1.47      0.0000      0.00 LINEAR  9.7735E-03     30.18  0.0000E+00      0.00
  140.00     40.00     -2.15  -999.99    -2.15      0.0000      0.00 LINEAR  9.0309E-03      3.31  0.0000E+00      0.00
  144.00     40.00     -2.94  -999.99    -2.94      0.0000      0.00 LINEAR  8.2468E-03    -24.46  0.0000E+00      0.00
  148.00     40.00     -3.85  -999.99    -3.85      0.0000      0.00 LINEAR  7.4251E-03    -52.98  0.0000E+00      0.00
  152.00     40.00     -4.92  -999.99    -4.92      0.0000      0.00 LINEAR  6.5700E-03    -82.13  0.0000E+00      0.00
  156.00     40.00     -6.17  -999.99    -6.17      0.0000     -0.00 LINEAR  5.6857E-03   -111.75  0.0000E+00      0.00
  160.00     40.00     -7.68  -999.99    -7.68      0.0000     -0.00 LINEAR  4.7763E-03   -141.71  0.0000E+00      0.00
  164.00     40.00     -9.57  -999.99    -9.57      0.0000     -0.00 LINEAR  3.8461E-03   -171.86  0.0000E+00      0.00
  168.00     40.00    -12.02  -999.99   -12.02      0.0000     -0.00 LINEAR  2.8991E-03    157.95  0.0000E+00      0.00
  172.00     40.00    -15.51  -999.99   -15.51      0.0000     -0.00 LINEAR  1.9397E-03    127.86  0.0000E+00      0.00
  176.00     40.00    -21.51  -999.99   -21.51      0.0000     -0.00 LINEAR  9.7192E-04     98.03  0.0000E+00      0.00
  180.00     40.00   -999.99  -999.99  -999.99      0.0000      0.00         1.4220E-13   -111.40  0.0000E+00      0.00
    0.00     44.00   -999.99  -999.99  -999.99      0.0000      0.00         0.0000E+00      0.00  0.0000E+00      0.00
    4.00     44.00    -21.51  -999.99   -21.51      0.0000      0.00 LINEAR  9.7180E-04    -41.56  0.0000E+00      0.00
    8.00     44.00    -15.51  -999.99   -15.51      0.0000      0.00 LINEAR  1.9394E-03    -14.48  0.0000E+00      0.00
   12.00     44.00    -12.02  -999.99   -12.02      0.0000      0.00 LINEAR  2.8988E-03     11.79  0.0000E+00      0.00
   16.00     44.00     -9.57  -999.99    -9.57      0.0000      0.00 LINEAR  3.8456E-03     37.12  0.0000E+00      0.00
   20.00     44.00     -7.69  -999.99    -7.69      0.0000      0.00 LINEAR  4.7758E-03     61.40  0.0000E+00      0.00
   24.00     44.00     -6.17  -999.99    -6.17      0.0000      0.00 LINEAR  5.6850E-03     84.50  0.0000E+00      0.00
   28.00     44.00     -4.92  -999.99    -4.92      0.0000     -0.00 LINEAR  6.5693E-03    106.30  0.0000E+00      0.00
   32.00     44.00     -3.85  -999.99    -3.85      0.0000     -0.00 LINEAR  7.4243E-03    126.71  0.0000E+00      0.00
   36.00     44.00     -2.94  -999.99    -2.94      0.0000     -0.00 LINEAR  8.2459E-03    145.63  0.0000E+00      0.00
   40.00     44.00     -2.15  -999.99    -2.15      0.0000     -0.00 LINEAR  9.0300E-03    162.95  0.0000E+00      0.00
   44.00     44.00     -1.47  -999.99    -1.47      0.0000     -0.00 LINEAR  9.7726E-03    178.61  0.0000E+00      0.00
   48.00     44.00     -0.87  -999.99    -0.87      0.0000     -0.00 LINEAR  1.0470E-02   -167.49  0.0000E+00      0.00
   52.00     44.00     -0.35  -999.99    -0.35      0.0000     -0.00 LINEAR  1.1117E-02   -155.40  0.0000E+00      0.00
   56.00     44.00      0.11  -999.99     0.11      0.0000     -0.00 LINEAR  1.1712E-02   -145.19  0.0000E+00      0.00
   60.00     44.00      0.50  -999.99     0.50      0.0000     -0.00 LINEAR  1.2250E-02   -136.90  0.0000E+00      0.00
   64.00     44.00      0.83  -999.99     0.83      0.0000     -0.00 LINEAR  1.2729E-02   -130.58  0.0000E+00      0.00
   68.00     44.00      1.11  -999.99     1.11      0.0000     -0.00 LINEAR  1.3145E-02   -126.25  0.0000E+00      0.00
   72.00     44.00      1.34  -999.99     1.34      0.0000     -0.00 LINEAR  1.3496E-02   -123.94  0.0000E+00      0.00
   76.00     44.00      1.52  -999.99     1.52      0.0000     -0.00 LINEAR  1.3779E-02   -123.66  0.0000E+00      0.00
   80.00     44.00      1.65  -999.99     1.65      0.0000     -0.00 LINEAR  1.3993E-02   -125.42  0.0000E+00      0.00
   84.00     44.00      1.74  -999.99     1.74      0.0000     -0.00 LINEAR  1.4137E-02   -129.19  0.0000E+00      0.00
   88.00     44.00      1.78  -999.99     1.78      0.0000     -0.00 LINEAR  1.4209E-02   -134.96  0.0000E+00      0.00
   92.00     44.00      1.78  -999.99     1.78      0.0000     -0.00 LINEAR  1.4209E-02   -142.71  0.0000E+00      0.00
   96.00     44.00      1.74  -999.99     1.74      0.0000     -0.00 LINEAR  1.4137E-02   -152.40  0.0000E+00      0.00
  100.00     44.00      1.65  -999.99     1.65      0.0000     -0.00 LINEAR  1.3994E-02   -163.98  0.0000E+00      0.00
  104.00     44.00      1.52  -999.99     1.52      0.0000     -0.00 LINEAR  1.3779E-02   -177.39  0.0000E+00      0.00
  108.00     44.00      1.34  -999.99     1.34      0.0000     -0.00 LINEAR  1.3496E-02    167.43  0.0000E+00      0.00
  112.00     44.00      1.11  -999.99     1.11      0.0000     -0.00 LINEAR  1.3145E-02    150.56  0.0000E+00      0.00
  116.00     44.00      0.83  -999.99     0.83      0.0000     -0.00 LINEAR  1.2729E-02    132.07  0.0000E+00      0.00
  120.00     44.00      0.50  -999.99     0.50      0.0000     -0.00 LINEAR  1.2251E-02    112.06  0.0000E+00      0.00
  124.00     44.00      0.11  -999.99     0.11      0.0000     -0.00 LINEAR  1.1713E-02     90.63  0.0000E+00      0.00
  128.00     44.00     -0.35  -999.99    -0.35      0.0000      0.00 LINEAR  1.1118E-02     67.87  0.0000E+00      0.00
  132.00     44.00     -0.87  -999.99    -0.87      0.0000      0.00 LINEAR  1.0470E-02     43.91  0.0000E+00      0.00
  136.00     44.00     -1.47  -999.99    -1.47      0.0000      0.00 LINEAR  9.7735E-03     18.86  0.0000E+00      0.00
  140.00     44.00     -2.15  -999.99    -2.15      0.0000      0.00 LINEAR  9.0309E-03     -7.17  0.0000E+00      0.00
  144.00     44.00     -2.94  -999.99    -2.94      0.0000      0.00 LINEAR  8.2468E-03    -34.04  0.0000E+00      0.00
  148.00     44.00     -3.85  -999.99    -3.85      0.0000      0.00 LINEAR  7.4251E-03    -61.62  0.0000E+00      0.00
  152.00     44.00     -4.92  -999.99    -4.92      0.0000      0.00 LINEAR  6.5700E-03    -89.78  0.0000E+00      0.00
  156.00     44.00     -6.17  -999.99    -6.17      0.0000     -0.00 LINEAR  5.6857E-03   -118.39  0.0000E+00      0.00
  160.00     44.00     -7.68  -999.99    -7.68      0.0000     -0.00 LINEAR  4.7763E-03   -147.29  0.0000E+00      0.00
  164.00     44.00     -9.57  -999.99    -9.57      0.0000     -0.00 LINEAR  3.8461E-03   -176.36  0.0000E+00      0.00
  168.00     44.00    -12.02  -999.99   -12.02      0.0000     -0.00 LINEAR  2.8991E-03    154.56  0.0000E+00      0.00
  172.00     44.00    -15.51  -999.99   -15.51      0.0000     -0.00 LINEAR  1.9397E-03    125.60  0.0000E+00      0.00
  176.00     44.00    -21.51  -999.99   -21.51      0.0000     -0.00 LINEAR  9.7192E-04     96.90  0.0000E+00      0.00
  180.00     44.00   -999.99  -999.99  -999.99      0.0000      0.00         1.4220E-13   -111.40  0.0000E+00      0.00
    0.00     48.00   -999.99  -999.99  -999.99      0.0000      0.00         0.0000E+00      0.00  0.0000E+00      0.00
    4.00     48.00    -21.51  -999.99   -21.51      0.0000      0.00 LINEAR  9.7180E-04    -42.84  0.0000E+00      0.00
    8.00     48.00    -15.51  -999.99   -15.51      0.0000      0.00 LINEAR  1.9394E-03    -17.02  0.0000E+00      0.00
   12.00     48.00    -12.02  -999.99   -12.02      0.0000      0.00 LINEAR  2.8988E-03      7.99  0.0000E+00      0.00
   16.00     48.00     -9.57  -999.99    -9.57      0.0000      0.00 LINEAR  3.8456E-03     32.09  0.0000E+00      0.00
   20.00     48.00     -7.69  -999.99    -7.69      0.0000      0.00 LINEAR  4.7758E-03     55.15  0.0000E+00      0.00
   24.00     48.00     -6.17  -999.99    -6.17      0.0000      0.00 LINEAR  5.6850E-03     77.07  0.0000E+00      0.00
   28.00     48.00     -4.92  -999.99    -4.92      0.0000     -0.00 LINEAR  6.5693E-03     97.73  0.0000E+00      0.00
   32.00     48.00     -3.85  -999.99    -3.85      0.0000     -0.00 LINEAR  7.4243E-03    117.04  0.0000E+00      0.00
   36.00     48.00     -2.94  -999.99    -2.94      0.0000     -0.00 LINEAR  8.2459E-03    134.89  0.0000E+00      0.00
   40.00     48.00     -2.15  -999.99    -2.15      0.0000     -0.00 LINEAR  9.0300E-03    151.21  0.0000E+00      0.00
   44.00     48.00     -1.47  -999.99    -1.47      0.0000     -0.00 LINEAR  9.7726E-03    165.92  0.0000E+00      0.00
   48.00     48.00     -0.87  -999.99    -0.87      0.0000     -0.00 LINEAR  1.0470E-02    178.94  0.0000E+00      0.00
   52.00     48.00     -0.35  -999.99    -0.35      0.0000     -0.00 LINEAR  1.1117E-02   -169.79  0.0000E+00      0.00
   56.00     48.00      0.11  -999.99     0.11      0.0000     -0.00 LINEAR  1.1712E-02   -160.33  0.0000E+00      0.00
   60.00     48.00      0.50  -999.99     0.50      0.0000     -0.00 LINEAR  1.2250E-02   -152.72  0.0000E+00      0.00
   64.00     48.00      0.83  -999.99     0.83      0.0000     -0.00 LINEAR  1.2729E-02   -146.99  0.0000E+00      0.00
   68.00     48.00      1.11  -999.99     1.11      0.0000     -0.00 LINEAR  1.3145E-02   -143.18  0.0000E+00      0.00
   72.00     48.00      1.34  -999.99     1.34      0.0000     -0.00 LINEAR  1.3496E-02   -141.31  0.0000E+00      0.00
   76.00     48.00      1.52  -999.99     1.52      0.0000     -0.00 LINEAR  1.3779E-02   -141.38  0.0000E+00      0.00
   80.00     48.00      1.65  -999.99     1.65      0.0000     -0.00 LINEAR  1.3993E-02   -143.40  0.0000E+00      0.00
   84.00     48.00      1.74  -999.99     1.74      0.0000     -0.00 LINEAR  1.4137E-02   -147.35  0.0000E+00      0.00
   88.00     48.00      1.78  -999.99     1.78      0.0000     -0.00 LINEAR  1.4209E-02   -153.21  0.0000E+00      0.00
   92.00     48.00      1.78  -999.99     1.78      0.0000     -0.00 LINEAR  1.4209E-02   -160.96  0.0000E+00      0.00
   96.00     48.00      1.74  -999.99     1.74      0.0000     -0.00 LINEAR  1.4137E-02   -170.56  0.0000E+00      0.00
  100.00     48.00      1.65  -999.99     1.65      0.0000     -0.00 LINEAR  1.3994E-02    178.04  0.0000E+00      0.00
  104.00     48.00      1.52  -999.99     1.52      0.0000     -0.00 LINEAR  1.3779E-02    164.89  0.0000E+00      0.00
  108.00     48.00      1.34  -999.99     1.34      0.0000     -0.00 LINEAR  1.3496E-02    150.06  0.0000E+00      0.00
  112.00     48.00      1.11  -999.99     1.11      0.0000     -0.00 LINEAR  1.3145E-02    133.62  0.0000E+00      0.00
  116.00     48.00      0.83  -999.99     0.83      0.0000     -0.00 LINEAR  1.2729E-02    115.66  0.0000E+00      0.00
  120.00     48.00      0.50  -999.99     0.50      0.0000     -0.00 LINEAR  1.2251E-02     96.25  0.0000E+00      0.00
  124.00     48.00      0.11  -999.99     0.11      0.0000      0.00 LINEAR  1.1713E-02     75.49  0.0000E+00      0.00
  128.00     48.00     -0.35  -999.99    -0.35      0.0000      0.00 LINEAR  1.1118E-02     53.48  0.0000E+00      0.00
  132.00     48.00     -0.87  -999.99    -0.87      0.0000      0.00 LINEAR  1.0470E-02     30.34  0.0000E+00      0.00
  136.00     48.00     -1.47  -999.99    -1.47      0.0000      0.00 LINEAR  9.7735E-03      6.17  0.0000E+00      0.00
  140.00     48.00     -2.15  -999.99    -2.15      0.0000      0.00 LINEAR  9.0309E-03    -18.91  0.0000E+00      0.00
  144.00     48.00     -2.94  -999.99    -2.94      0.0000      0.00 LINEAR  8.2468E-03    -44.77  0.0000E+00      0.00
  148.00     48.00     -3.85  -999.99    -3.85      0.0000      0.00 LINEAR  7.4251E-03    -71.30  0.0000E+00      0.00
  152.00     48.00     -4.92  -999.99    -4.92      0.0000     -0.00 LINEAR  6.5700E-03    -98.36  0.0000E+00      0.00
  156.00     48.00     -6.17  -999.99    -6.17      0.0000     -0.00 LINEAR  5.6857E-03   -125.81  0.0000E+00      0.00
  160.00     48.00     -7.68  -999.99    -7.68      0.0000     -0.00 LINEAR  4.7763E-03   -153.54  0.0000E+00      0.00
  164.00     48.00     -9.57  -999.99    -9.57      0.0000     -0.00 LINEAR  3.8461E-03    178.61  0.0000E+00      0.00
  168.00     48.00    -12.02  -999.99   -12.02      0.0000     -0.00 LINEAR  2.8991E-03    150.76  0.0000E+00      0.00
  172.00     48.00    -15.51  -999.99   -15.51      0.0000     -0.00 LINEAR  1.9397E-03    123.05  0.0000E+00      0.00
[...]
   76.00    344.00      1.52  -999.99     1.52      0.0000     -0.00 LINEAR  1.3779E-02   -110.39  0.0000E+00      0.00
   80.00    344.00      1.65  -999.99     1.65      0.0000     -0.00 LINEAR  1.3993E-02   -111.94  0.0000E+00      0.00
   84.00    344.00      1.74  -999.99     1.74      0.0000     -0.00 LINEAR  1.4137E-02   -115.58  0.0000E+00      0.00
   88.00    344.00      1.78  -999.99     1.78      0.0000     -0.00 LINEAR  1.4209E-02   -121.29  0.0000E+00      0.00
   92.00    344.00      1.78  -999.99     1.78      0.0000     -0.00 LINEAR  1.4209E-02   -129.04  0.0000E+00      0.00
   96.00    344.00      1.74  -999.99     1.74      0.0000     -0.00 LINEAR  1.4137E-02   -138.79  0.0000E+00      0.00
  100.00    344.00      1.65  -999.99     1.65      0.0000     -0.00 LINEAR  1.3994E-02   -150.50  0.0000E+00      0.00
  104.00    344.00      1.52  -999.99     1.52      0.0000     -0.00 LINEAR  1.3779E-02   -164.11  0.0000E+00      0.00
  108.00    344.00      1.34  -999.99     1.34      0.0000     -0.00 LINEAR  1.3496E-02   -179.56  0.0000E+00      0.00
  112.00    344.00      1.11  -999.99     1.11      0.0000     -0.00 LINEAR  1.3145E-02    163.24  0.0000E+00      0.00
  116.00    344.00      0.83  -999.99     0.83      0.0000     -0.00 LINEAR  1.2729E-02    144.37  0.0000E+00      0.00
  120.00    344.00      0.50  -999.99     0.50      0.0000     -0.00 LINEAR  1.2251E-02    123.91  0.0000E+00      0.00
  124.00    344.00      0.11  -999.99     0.11      0.0000     -0.00 LINEAR  1.1713E-02    101.97  0.0000E+00      0.00
  128.00    344.00     -0.35  -999.99    -0.35      0.0000      0.00 LINEAR  1.1118E-02     78.66  0.0000E+00      0.00
  132.00    344.00     -0.87  -999.99    -0.87      0.0000      0.00 LINEAR  1.0470E-02     54.08  0.0000E+00      0.00
  136.00    344.00     -1.47  -999.99    -1.47      0.0000      0.00 LINEAR  9.7735E-03     28.36  0.0000E+00      0.00
  140.00    344.00     -2.15  -999.99    -2.15      0.0000      0.00 LINEAR  9.0309E-03      1.62  0.0000E+00      0.00
  144.00    344.00     -2.94  -999.99    -2.94      0.0000      0.00 LINEAR  8.2468E-03    -26.00  0.0000E+00      0.00
  148.00    344.00     -3.85  -999.99    -3.85      0.0000      0.00 LINEAR  7.4251E-03    -54.37  0.0000E+00      0.00
  152.00    344.00     -4.92  -999.99    -4.92      0.0000      0.00 LINEAR  6.5700E-03    -83.36  0.0000E+00      0.00
  156.00    344.00     -6.17  -999.99    -6.17      0.0000     -0.00 LINEAR  5.6857E-03   -112.82  0.0000E+00      0.00
  160.00    344.00     -7.68  -999.99    -7.68      0.0000     -0.00 LINEAR  4.7763E-03   -142.61  0.0000E+00      0.00
  164.00    344.00     -9.57  -999.99    -9.57      0.0000     -0.00 LINEAR  3.8461E-03   -172.59  0.0000E+00      0.00
  168.00    344.00    -12.02  -999.99   -12.02      0.0000     -0.00 LINEAR  2.8991E-03    157.40  0.0000E+00      0.00
  172.00    344.00    -15.51  -999.99   -15.51      0.0000     -0.00 LINEAR  1.9397E-03    127.50  0.0000E+00      0.00
  176.00    344.00    -21.51  -999.99   -21.51      0.0000     -0.00 LINEAR  9.7192E-04     97.85  0.0000E+00      0.00
  180.00    344.00   -999.99  -999.99  -999.99      0.0000      0.00         1.4220E-13   -111.40  0.0000E+00      0.00
    0.00    348.00   -999.99  -999.99  -999.99      0.0000      0.00         0.0000E+00      0.00  0.0000E+00      0.00
    4.00    348.00    -21.51  -999.99   -21.51      0.0000      0.00 LINEAR  9.7180E-04    -39.59  0.0000E+00      0.00
    8.00    348.00    -15.51  -999.99   -15.51      0.0000      0.00 LINEAR  1.9394E-03    -10.54  0.0000E+00      0.00
   12.00    348.00    -12.02  -999.99   -12.02      0.0000      0.00 LINEAR  2.8988E-03     17.67  0.0000E+00      0.00
   16.00    348.00     -9.57  -999.99    -9.57      0.0000      0.00 LINEAR  3.8456E-03     44.92  0.0000E+00      0.00
   20.00    348.00     -7.69  -999.99    -7.69      0.0000      0.00 LINEAR  4.7758E-03     71.08  0.0000E+00      0.00
   24.00    348.00     -6.17  -999.99    -6.17      0.0000     -0.00 LINEAR  5.6850E-03     96.01  0.0000E+00      0.00
   28.00    348.00     -4.92  -999.99    -4.92      0.0000     -0.00 LINEAR  6.5693E-03    119.59  0.0000E+00      0.00
   32.00    348.00     -3.85  -999.99    -3.85      0.0000     -0.00 LINEAR  7.4243E-03    141.71  0.0000E+00      0.00
   36.00    348.00     -2.94  -999.99    -2.94      0.0000     -0.00 LINEAR  8.2459E-03    162.26  0.0000E+00      0.00
   40.00    348.00     -2.15  -999.99    -2.15      0.0000     -0.00 LINEAR  9.0300E-03   -178.86  0.0000E+00      0.00
   44.00    348.00     -1.47  -999.99    -1.47      0.0000     -0.00 LINEAR  9.7726E-03   -161.74  0.0000E+00      0.00
   48.00    348.00     -0.87  -999.99    -0.87      0.0000     -0.00 LINEAR  1.0470E-02   -146.46  0.0000E+00      0.00
   52.00    348.00     -0.35  -999.99    -0.35      0.0000     -0.00 LINEAR  1.1117E-02   -133.10  0.0000E+00      0.00
   56.00    348.00      0.11  -999.99     0.11      0.0000     -0.00 LINEAR  1.1712E-02   -121.73  0.0000E+00      0.00
   60.00    348.00      0.50  -999.99     0.50      0.0000     -0.00 LINEAR  1.2250E-02   -112.39  0.0000E+00      0.00
   64.00    348.00      0.83  -999.99     0.83      0.0000     -0.00 LINEAR  1.2729E-02   -105.14  0.0000E+00      0.00
   68.00    348.00      1.11  -999.99     1.11      0.0000     -0.00 LINEAR  1.3145E-02   -100.01  0.0000E+00      0.00
   72.00    348.00      1.34  -999.99     1.34      0.0000     -0.00 LINEAR  1.3496E-02    -97.03  0.0000E+00      0.00
   76.00    348.00      1.52  -999.99     1.52      0.0000     -0.00 LINEAR  1.3779E-02    -96.21  0.0000E+00      0.00
   80.00    348.00      1.65  -999.99     1.65      0.0000     -0.00 LINEAR  1.3993E-02    -97.55  0.0000E+00      0.00
   84.00    348.00      1.74  -999.99     1.74      0.0000     -0.00 LINEAR  1.4137E-02   -101.04  0.0000E+00      0.00
   88.00    348.00      1.78  -999.99     1.78      0.0000     -0.00 LINEAR  1.4209E-02   -106.68  0.0000E+00      0.00
   92.00    348.00      1.78  -999.99     1.78      0.0000     -0.00 LINEAR  1.4209E-02   -114.43  0.0000E+00      0.00
   96.00    348.00      1.74  -999.99     1.74      0.0000     -0.00 LINEAR  1.4137E-02   -124.26  0.0000E+00      0.00
  100.00    348.00      1.65  -999.99     1.65      0.0000     -0.00 LINEAR  1.3994E-02   -136.11  0.0000E+00      0.00
  104.00    348.00      1.52  -999.99     1.52      0.0000     -0.00 LINEAR  1.3779E-02   -149.93  0.0000E+00      0.00
  108.00    348.00      1.34  -999.99     1.34      0.0000     -0.00 LINEAR  1.3496E-02   -165.66  0.0000E+00      0.00
  112.00    348.00      1.11  -999.99     1.11      0.0000     -0.00 LINEAR  1.3145E-02    176.79  0.0000E+00      0.00
  116.00    348.00      0.83  -999.99     0.83      0.0000     -0.00 LINEAR  1.2729E-02    157.51  0.0000E+00      0.00
  120.00    348.00      0.50  -999.99     0.50      0.0000     -0.00 LINEAR  1.2251E-02    136.57  0.0000E+00      0.00
  124.00    348.00      0.11  -999.99     0.11      0.0000     -0.00 LINEAR  1.1713E-02    114.09  0.0000E+00      0.00
  128.00    348.00     -0.35  -999.99    -0.35      0.0000     -0.00 LINEAR  1.1118E-02     90.17  0.0000E+00      0.00
  132.00    348.00     -0.87  -999.99    -0.87      0.0000      0.00 LINEAR  1.0470E-02     64.94  0.0000E+00      0.00
  136.00    348.00     -1.47  -999.99    -1.47      0.0000      0.00 LINEAR  9.7735E-03     38.51  0.0000E+00      0.00
  140.00    348.00     -2.15  -999.99    -2.15      0.0000      0.00 LINEAR  9.0309E-03     11.02  0.0000E+00      0.00
  144.00    348.00     -2.94  -999.99    -2.94      0.0000      0.00 LINEAR  8.2468E-03    -17.41  0.0000E+00      0.00
  148.00    348.00     -3.85  -999.99    -3.85      0.0000      0.00 LINEAR  7.4251E-03    -46.63  0.0000E+00      0.00
  152.00    348.00     -4.92  -999.99    -4.92      0.0000      0.00 LINEAR  6.5700E-03    -76.50  0.0000E+00      0.00
  156.00    348.00     -6.17  -999.99    -6.17      0.0000     -0.00 LINEAR  5.6857E-03   -106.88  0.0000E+00      0.00
  160.00    348.00     -7.68  -999.99    -7.68      0.0000     -0.00 LINEAR  4.7763E-03   -137.61  0.0000E+00      0.00
  164.00    348.00     -9.57  -999.99    -9.57      0.0000     -0.00 LINEAR  3.8461E-03   -168.56  0.0000E+00      0.00
  168.00    348.00    -12.02  -999.99   -12.02      0.0000     -0.00 LINEAR  2.8991E-03    160.44  0.0000E+00      0.00
  172.00    348.00    -15.51  -999.99   -15.51      0.0000     -0.00 LINEAR  1.9397E-03    129.53  0.0000E+00      0.00
  176.00    348.00    -21.51  -999.99   -21.51      0.0000     -0.00 LINEAR  9.7192E-04     98.87  0.0000E+00      0.00
  180.00    348.00   -999.99  -999.99  -999.99      0.0000      0.00         1.4220E-13   -111.40  0.0000E+00      0.00
    0.00    352.00   -999.99  -999.99  -999.99      0.0000      0.00         0.0000E+00      0.00  0.0000E+00      0.00
    4.00    352.00    -21.51  -999.99   -21.51      0.0000      0.00 LINEAR  9.7180E-04    -38.71  0.0000E+00      0.00
    8.00    352.00    -15.51  -999.99   -15.51      0.0000      0.00 LINEAR  1.9394E-03     -8.80  0.0000E+00      0.00
   12.00    352.00    -12.02  -999.99   -12.02      0.0000      0.00 LINEAR  2.8988E-03     20.28  0.0000E+00      0.00
   16.00    352.00     -9.57  -999.99    -9.57      0.0000      0.00 LINEAR  3.8456E-03     48.38  0.0000E+00      0.00
   20.00    352.00     -7.69  -999.99    -7.69      0.0000      0.00 LINEAR  4.7758E-03     75.36  0.0000E+00      0.00
   24.00    352.00     -6.17  -999.99    -6.17      0.0000     -0.00 LINEAR  5.6850E-03    101.10  0.0000E+00      0.00
   28.00    352.00     -4.92  -999.99    -4.92      0.0000     -0.00 LINEAR  6.5693E-03    125.47  0.0000E+00      0.00
   32.00    352.00     -3.85  -999.99    -3.85      0.0000     -0.00 LINEAR  7.4243E-03    148.34  0.0000E+00      0.00
   36.00    352.00     -2.94  -999.99    -2.94      0.0000     -0.00 LINEAR  8.2459E-03    169.62  0.0000E+00      0.00
   40.00    352.00     -2.15  -999.99    -2.15      0.0000     -0.00 LINEAR  9.0300E-03   -170.81  0.0000E+00      0.00
   44.00    352.00     -1.47  -999.99    -1.47      0.0000     -0.00 LINEAR  9.7726E-03   -153.04  0.0000E+00      0.00
   48.00    352.00     -0.87  -999.99    -0.87      0.0000     -0.00 LINEAR  1.0470E-02   -137.15  0.0000E+00      0.00
   52.00    352.00     -0.35  -999.99    -0.35      0.0000     -0.00 LINEAR  1.1117E-02   -123.23  0.0000E+00      0.00
   56.00    352.00      0.11  -999.99     0.11      0.0000     -0.00 LINEAR  1.1712E-02   -111.35  0.0000E+00      0.00
   60.00    352.00      0.50  -999.99     0.50      0.0000     -0.00 LINEAR  1.2250E-02   -101.55  0.0000E+00      0.00
   64.00    352.00      0.83  -999.99     0.83      0.0000     -0.00 LINEAR  1.2729E-02    -93.89  0.0000E+00      0.00
   68.00    352.00      1.11  -999.99     1.11      0.0000      0.00 LINEAR  1.3145E-02    -88.40  0.0000E+00      0.00
   72.00    352.00      1.34  -999.99     1.34      0.0000      0.00 LINEAR  1.3496E-02    -85.12  0.0000E+00      0.00
   76.00    352.00      1.52  -999.99     1.52      0.0000      0.00 LINEAR  1.3779E-02    -84.06  0.0000E+00      0.00
   80.00    352.00      1.65  -999.99     1.65      0.0000      0.00 LINEAR  1.3993E-02    -85.21  0.0000E+00      0.00
   84.00    352.00      1.74  -999.99     1.74      0.0000      0.00 LINEAR  1.4137E-02    -88.59  0.0000E+00      0.00
   88.00    352.00      1.78  -999.99     1.78      0.0000     -0.00 LINEAR  1.4209E-02    -94.17  0.0000E+00      0.00
   92.00    352.00      1.78  -999.99     1.78      0.0000     -0.00 LINEAR  1.4209E-02   -101.92  0.0000E+00      0.00
   96.00    352.00      1.74  -999.99     1.74      0.0000     -0.00 LINEAR  1.4137E-02   -111.80  0.0000E+00      0.00
  100.00    352.00      1.65  -999.99     1.65      0.0000     -0.00 LINEAR  1.3994E-02   -123.78  0.0000E+00      0.00
  104.00    352.00      1.52  -999.99     1.52      0.0000     -0.00 LINEAR  1.3779E-02   -137.78  0.0000E+00      0.00
  108.00    352.00      1.34  -999.99     1.34      0.0000     -0.00 LINEAR  1.3496E-02   -153.75  0.0000E+00      0.00
  112.00    352.00      1.11  -999.99     1.11      0.0000     -0.00 LINEAR  1.3145E-02   -171.59  0.0000E+00      0.00
  116.00    352.00      0.83  -999.99     0.83      0.0000     -0.00 LINEAR  1.2729E-02    168.76  0.0000E+00      0.00
  120.00    352.00      0.50  -999.99     0.50      0.0000     -0.00 LINEAR  1.2251E-02    147.41  0.0000E+00      0.00
  124.00    352.00      0.11  -999.99     0.11      0.0000     -0.00 LINEAR  1.1713E-02    124.47  0.0000E+00      0.00
  128.00    352.00     -0.35  -999.99    -0.35      0.0000     -0.00 LINEAR  1.1118E-02    100.04  0.0000E+00      0.00
  132.00    352.00     -0.87  -999.99    -0.87      0.0000      0.00 LINEAR  1.0470E-02     74.25  0.0000E+00      0.00
  136.00    352.00     -1.47  -999.99    -1.47      0.0000      0.00 LINEAR  9.7735E-03     47.21  0.0000E+00      0.00
  140.00    352.00     -2.15  -999.99    -2.15      0.0000      0.00 LINEAR  9.0309E-03     19.07  0.0000E+00      0.00
  144.00    352.00     -2.94  -999.99    -2.94      0.0000      0.00 LINEAR  8.2468E-03    -10.05  0.0000E+00      0.00
  148.00    352.00     -3.85  -999.99    -3.85      0.0000      0.00 LINEAR  7.4251E-03    -39.99  0.0000E+00      0.00
  152.00    352.00     -4.92  -999.99    -4.92      0.0000      0.00 LINEAR  6.5700E-03    -70.62  0.0000E+00      0.00
  156.00    352.00     -6.17  -999.99    -6.17      0.0000     -0.00 LINEAR  5.6857E-03   -101.78  0.0000E+00      0.00
  160.00    352.00     -7.68  -999.99    -7.68      0.0000     -0.00 LINEAR  4.7763E-03   -133.33  0.0000E+00      0.00
  164.00    352.00     -9.57  -999.99    -9.57      0.0000     -0.00 LINEAR  3.8461E-03   -165.10  0.0000E+00      0.00
  168.00    352.00    -12.02  -999.99   -12.02      0.0000     -0.00 LINEAR  2.8991E-03    163.05  0.0000E+00      0.00
  172.00    352.00    -15.51  -999.99   -15.51      0.0000     -0.00 LINEAR  1.9397E-03    131.28  0.0000E+00      0.00
  176.00    352.00    -21.51  -999.99   -21.51      0.0000     -0.00 LINEAR  9.7192E-04     99.74  0.0000E+00      0.00
  180.00    352.00   -999.99  -999.99  -999.99      0.0000      0.00         1.4220E-13   -111.40  0.0000E+00      0.00
    0.00    356.00   -999.99  -999.99  -999.99      0.0000      0.00         0.0000E+00      0.00  0.0000E+00      0.00
    4.00    356.00    -21.51  -999.99   -21.51      0.0000      0.00 LINEAR  9.7180E-04    -37.99  0.0000E+00      0.00
    8.00    356.00    -15.51  -999.99   -15.51      0.0000      0.00 LINEAR  1.9394E-03     -7.36  0.0000E+00      0.00
   12.00    356.00    -12.02  -999.99   -12.02      0.0000      0.00 LINEAR  2.8988E-03     22.43  0.0000E+00      0.00
   16.00    356.00     -9.57  -999.99    -9.57      0.0000      0.00 LINEAR  3.8456E-03     51.23  0.0000E+00      0.00
   20.00    356.00     -7.69  -999.99    -7.69      0.0000      0.00 LINEAR  4.7758E-03     78.91  0.0000E+00      0.00
   24.00    356.00     -6.17  -999.99    -6.17      0.0000     -0.00 LINEAR  5.6850E-03    105.32  0.0000E+00      0.00
   28.00    356.00     -4.92  -999.99    -4.92      0.0000     -0.00 LINEAR  6.5693E-03    130.33  0.0000E+00      0.00
   32.00    356.00     -3.85  -999.99    -3.85      0.0000     -0.00 LINEAR  7.4243E-03    153.84  0.0000E+00      0.00
   36.00    356.00     -2.94  -999.99    -2.94      0.0000     -0.00 LINEAR  8.2459E-03    175.71  0.0000E+00      0.00
   40.00    356.00     -2.15  -999.99    -2.15      0.0000     -0.00 LINEAR  9.0300E-03   -164.14  0.0000E+00      0.00
   44.00    356.00     -1.47  -999.99    -1.47      0.0000     -0.00 LINEAR  9.7726E-03   -145.84  0.0000E+00      0.00
   48.00    356.00     -0.87  -999.99    -0.87      0.0000     -0.00 LINEAR  1.0470E-02   -129.45  0.0000E+00      0.00
   52.00    356.00     -0.35  -999.99    -0.35      0.0000     -0.00 LINEAR  1.1117E-02   -115.06  0.0000E+00      0.00
   56.00    356.00      0.11  -999.99     0.11      0.0000     -0.00 LINEAR  1.1712E-02   -102.75  0.0000E+00      0.00
   60.00    356.00      0.50  -999.99     0.50      0.0000     -0.00 LINEAR  1.2250E-02    -92.57  0.0000E+00      0.00
   64.00    356.00      0.83  -999.99     0.83      0.0000      0.00 LINEAR  1.2729E-02    -84.57  0.0000E+00      0.00
   68.00    356.00      1.11  -999.99     1.11      0.0000      0.00 LINEAR  1.3145E-02    -78.79  0.0000E+00      0.00
   72.00    356.00      1.34  -999.99     1.34      0.0000      0.00 LINEAR  1.3496E-02    -75.26  0.0000E+00      0.00
   76.00    356.00      1.52  -999.99     1.52      0.0000      0.00 LINEAR  1.3779E-02    -74.00  0.0000E+00      0.00
   80.00    356.00      1.65  -999.99     1.65      0.0000      0.00 LINEAR  1.3993E-02    -75.01  0.0000E+00      0.00
   84.00    356.00      1.74  -999.99     1.74      0.0000      0.00 LINEAR  1.4137E-02    -78.28  0.0000E+00      0.00
   88.00    356.00      1.78  -999.99     1.78      0.0000      0.00 LINEAR  1.4209E-02    -83.81  0.0000E+00      0.00
   92.00    356.00      1.78  -999.99     1.78      0.0000     -0.00 LINEAR  1.4209E-02    -91.56  0.0000E+00      0.00
   96.00    356.00      1.74  -999.99     1.74      0.0000     -0.00 LINEAR  1.4137E-02   -101.49  0.0000E+00      0.00
  100.00    356.00      1.65  -999.99     1.65      0.0000     -0.00 LINEAR  1.3994E-02   -113.57  0.0000E+00      0.00
  104.00    356.00      1.52  -999.99     1.52      0.0000     -0.00 LINEAR  1.3779E-02   -127.72  0.0000E+00      0.00
  108.00    356.00      1.34  -999.99     1.34      0.0000     -0.00 LINEAR  1.3496E-02   -143.89  0.0000E+00      0.00
  112.00    356.00      1.11  -999.99     1.11      0.0000     -0.00 LINEAR  1.3145E-02   -161.98  0.0000E+00      0.00
  116.00    356.00      0.83  -999.99     0.83      0.0000     -0.00 LINEAR  1.2729E-02    178.08  0.0000E+00      0.00
  120.00    356.00      0.50  -999.99     0.50      0.0000     -0.00 LINEAR  1.2251E-02    156.39  0.0000E+00      0.00
  124.00    356.00      0.11  -999.99     0.11      0.0000     -0.00 LINEAR  1.1713E-02    133.06  0.0000E+00      0.00
  128.00    356.00     -0.35  -999.99    -0.35      0.0000     -0.00 LINEAR  1.1118E-02    108.21  0.0000E+00      0.00
  132.00    356.00     -0.87  -999.99    -0.87      0.0000      0.00 LINEAR  1.0470E-02     81.95  0.0000E+00      0.00
  136.00    356.00     -1.47  -999.99    -1.47      0.0000      0.00 LINEAR  9.7735E-03     54.41  0.0000E+00      0.00
  140.00    356.00     -2.15  -999.99    -2.15      0.0000      0.00 LINEAR  9.0309E-03     25.73  0.0000E+00      0.00
  144.00    356.00     -2.94  -999.99    -2.94      0.0000      0.00 LINEAR  8.2468E-03     -3.95  0.0000E+00      0.00
  148.00    356.00     -3.85  -999.99    -3.85      0.0000      0.00 LINEAR  7.4251E-03    -34.50  0.0000E+00      0.00
  152.00    356.00     -4.92  -999.99    -4.92      0.0000      0.00 LINEAR  6.5700E-03    -65.75  0.0000E+00      0.00
  156.00    356.00     -6.17  -999.99    -6.17      0.0000     -0.00 LINEAR  5.6857E-03    -97.57  0.0000E+00      0.00
  160.00    356.00     -7.68  -999.99    -7.68      0.0000     -0.00 LINEAR  4.7763E-03   -129.78  0.0000E+00      0.00
  164.00    356.00     -9.57  -999.99    -9.57      0.0000     -0.00 LINEAR  3.8461E-03   -162.25  0.0000E+00      0.00
  168.00    356.00    -12.02  -999.99   -12.02      0.0000     -0.00 LINEAR  2.8991E-03    165.20  0.0000E+00      0.00
  172.00    356.00    -15.51  -999.99   -15.51      0.0000     -0.00 LINEAR  1.9397E-03    132.72  0.0000E+00      0.00
  176.00    356.00    -21.51  -999.99   -21.51      0.0000     -0.00 LINEAR  9.7192E-04    100.47  0.0000E+00      0.00
  180.00    356.00   -999.99  -999.99  -999.99      0.0000      0.00         1.4220E-13   -111.40  0.0000E+00      0.00








*****  DATA CARD N0.   5 EN   0     0     0     0  0.00000E+00  0.00000E+00  0.00000E+00  0.00000E+00  0.00000E+00  0.00000E+00

  TOTAL RUN TIME: 40 msec