


                                __________________________________________
                               |                                          |
                               | NUMERICAL ELECTROMAGNETICS CODE (nec2++) |
                               | Translated to 'C++' in Double Precision  |
                               |        Version 1.5.1 [2014-01-02]        |
                               |__________________________________________|



                                -------- STRUCTURE SPECIFICATION --------
                                COORDINATES MUST BE INPUT IN
                                METERS OR BE SCALED TO METERS
                                BEFORE STRUCTURE INPUT IS ENDED
  WIRE                                                                                 SEG FIRST  LAST  TAG
   No:        X1         Y1         Z1         X2         Y2         Z2       RADIUS   No:   SEG   SEG  No:

     1     -0.6096     0.6096     0.0000    -0.6096     0.6096     0.4800     0.0010     8     1     8    1
     STRUCTURE SCALED BY FACTOR:    1.00000

     TOTAL SEGMENTS USED: 8   SEGMENTS IN A SYMMETRIC CELL: 8   SYMMETRY FLAG: 0


                               ---------- SEGMENTATION DATA ----------
                                        COORDINATES IN METERS
                            I+ AND I- INDICATE THE SEGMENTS BEFORE AND AFTER I

   SEG    COORDINATES OF SEGM CENTER     SEGM    ORIENTATION ANGLES    WIRE    CONNECTION DATA   TAG
   No:       X         Y         Z      LENGTH     ALPHA      BETA    RADIUS    I-     I    I+   NO:
     1   -0.6096    0.6096    0.0300    0.0600   90.0000    0.0000    0.0010     0     1     2     1
     2   -0.6096    0.6096    0.0900    0.0600   90.0000    0.0000    0.0010     1     2     3     1
     3   -0.6096    0.6096    0.1500    0.0600   90.0000    0.0000    0.0010     2     3     4     1
     4   -0.6096    0.6096    0.2100    0.0600   90.0000    0.0000    0.0010     3     4     5     1
     5   -0.6096    0.6096    0.2700    0.0600   90.0000    0.0000    0.0010     4     5     6     1
     6   -0.6096    0.6096    0.3300    0.0600   90.0000    0.0000    0.0010     5     6     7     1
     7   -0.6096    0.6096    0.3900    0.0600   90.0000    0.0000    0.0010     6     7     8     1
     8   -0.6096    0.6096    0.4500    0.0600   90.0000    0.0000    0.0010     7     8     0     1



*****  DATA CARD N0.   1 GN  -1     0     0     0  0.00000E+00  0.00000E+00  0.00000E+00  0.00000E+00  0.00000E+00  0.00000E+00
*****  DATA CARD N0.   2 FR   0     1     0     0  1.00000E+02  1.00000E+01  0.00000E+00  0.00000E+00  0.00000E+00  0.00000E+00
*****  DATA CARD N0.   3 EX   0     1     1     0  1.00000E+00  0.00000E+00  0.00000E+00  0.00000E+00  0.00000E+00  0.00000E+00
*****  DATA CARD N0.   4 RP   0    46    90  1000  0.00000E+00  0.00000E+00  4.00000E+00  4.00000E+00  0.00000E+00  0.00000E+00


                               --------- FREQUENCY --------
                               FREQUENCY=  1.0000E+02 MHZ
                               WAVELENGTH= 2.9980E+00 METERS


                        APPROXIMATE INTEGRATION EMPLOYED FOR SEGMENTS
                        THAT ARE MORE THAN 1.000 WAVELENGTHS APART



                          ------ STRUCTURE IMPEDANCE LOADING ------
                                 THIS STRUCTURE IS NOT LOADED



                            -------- ANTENNA ENVIRONMENT --------
                            FREE SPACE



                             ---------- MATRIX TIMING ----------
                               FILL= 0 msec  FACTOR: 0 msec


                      ----- ANTENNA INPUT PARAMETERS -----
  TAG   SEG       VOLTAGE (VOLTS)         CURRENT (AMPS)         IMPEDANCE (OHMS)        ADMITTANCE (MHOS)     POWER
  NO.   NO.     REAL      IMAGINARY     REAL      IMAGINARY     REAL      IMAGINARY    REAL       IMAGINARY   (WATTS)
   1     1  1.0000E+00  0.0000E+00  3.8542E-07  2.1831E-04  8.0869E+00 -4.5806E+03  3.8542E-07  2.1831E-04  1.9271E-07







                        ----- CURRENTS AND LOCATION -----
                            DISTANCES IN WAVELENGTHS 

   SEG  TAG    COORDINATES OF SEGM CENTER     SEGM    ------------- CURRENT (AMPS) -------------
   No:  No:       X         Y         Z      LENGTH     REAL      IMAGINARY    MAGN        PHASE
     1    1   -0.2033    0.2033    0.0100   0.02001  3.8542E-07  2.1831E-04  2.1831E-04   89.899 
     2    1   -0.2033    0.2033    0.0300   0.02001  9.0625E-07  2.3467E-04  2.3467E-04   89.779 
     3    1   -0.2033    0.2033    0.0500   0.02001  1.2301E-06  1.9510E-04  1.9511E-04   89.639 
     4    1   -0.2033    0.2033    0.0700   0.02001  1.3889E-06  1.6240E-04  1.6241E-04   89.510 
     5    1   -0.2033    0.2033    0.0901   0.02001  1.3873E-06  1.2991E-04  1.2992E-04   89.388 
     6    1   -0.2033    0.2033    0.1101   0.02001  1.2260E-06  9.6421E-05  9.6429E-05   89.272 
     7    1   -0.2033    0.2033    0.1301   0.02001  9.0121E-07  6.1364E-05  6.1371E-05   89.159 
     8    1   -0.2033    0.2033    0.1501   0.02001  3.8242E-07  2.3064E-05  2.3067E-05   89.050 






                               ---------- POWER BUDGET ---------
                               INPUT POWER   =  1.9271E-07 Watts
                               RADIATED POWER=  1.9271E-07 Watts
                               STRUCTURE LOSS=  0.0000E+00 Watts
                               NETWORK LOSS  =  0.0000E+00 Watts
                               EFFICIENCY    =  100.00 Percent


                         ----- RADIATION PATTERNS -----
 ---- ANGLES -----     ----- POWER GAINS -----       ---- POLARIZATION ----   ---- E(THETA) ----    ----- E(PHI) ------
  THETA      PHI       VERTC   HORIZ   TOTAL       AXIAL      TILT  SENSE   MAGNITUDE    PHASE    MAGNITUDE     PHASE
 DEGREES   DEGREES        DB       DB       DB       RATIO   DEGREES            VOLTS/M   DEGREES     VOLTS/M   DEGREES
    0.00      0.00   -999.99  -999.99  -999.99      0.0000      0.00         0.0000E+00      0.00  0.0000E+00      0.00
    4.00      0.00    -21.68  -999.99   -21.68      0.0000     -0.00 LINEAR  2.8029E-04   -164.64  0.0000E+00      0.00
    8.00      0.00    -15.67  -999.99   -15.67      0.0000     -0.00 LINEAR  5.5944E-04   -169.87  0.0000E+00      0.00
   12.00      0.00    -12.18  -999.99   -12.18      0.0000     -0.00 LINEAR  8.3629E-04   -175.16  0.0000E+00      0.00
   16.00      0.00     -9.72  -999.99    -9.72      0.0000     -0.00 LINEAR  1.1097E-03    179.53  0.0000E+00      0.00
   20.00      0.00     -7.84  -999.99    -7.84      0.0000     -0.00 LINEAR  1.3785E-03    174.22  0.0000E+00      0.00
   24.00      0.00     -6.32  -999.99    -6.32      0.0000     -0.00 LINEAR  1.6415E-03    168.94  0.0000E+00      0.00
   28.00      0.00     -5.06  -999.99    -5.06      0.0000     -0.00 LINEAR  1.8975E-03    163.71  0.0000E+00      0.00
   32.00      0.00     -4.00  -999.99    -4.00      0.0000     -0.00 LINEAR  2.1453E-03    158.56  0.0000E+00      0.00
   36.00      0.00     -3.08  -999.99    -3.08      0.0000     -0.00 LINEAR  2.3838E-03    153.51  0.0000E+00      0.00
   40.00      0.00     -2.29  -999.99    -2.29      0.0000     -0.00 LINEAR  2.6117E-03    148.59  0.0000E+00      0.00
   44.00      0.00     -1.60  -999.99    -1.60      0.0000     -0.00 LINEAR  2.8277E-03    143.82  0.0000E+00      0.00
   48.00      0.00     -1.00  -999.99    -1.00      0.0000     -0.00 LINEAR  3.0308E-03    139.22  0.0000E+00      0.00
   52.00      0.00     -0.47  -999.99    -0.47      0.0000     -0.00 LINEAR  3.2197E-03    134.82  0.0000E+00      0.00
   56.00      0.00     -0.01  -999.99    -0.01      0.0000     -0.00 LINEAR  3.3934E-03    130.63  0.0000E+00      0.00
   60.00      0.00      0.38  -999.99     0.38      0.0000     -0.00 LINEAR  3.5507E-03    126.69  0.0000E+00      0.00
   64.00      0.00      0.71  -999.99     0.71      0.0000     -0.00 LINEAR  3.6908E-03    123.00  0.0000E+00      0.00
   68.00      0.00      1.00  -999.99     1.00      0.0000     -0.00 LINEAR  3.8126E-03    119.58  0.0000E+00      0.00
   72.00      0.00      1.23  -999.99     1.23      0.0000     -0.00 LINEAR  3.9154E-03    116.46  0.0000E+00      0.00
   76.00      0.00      1.41  -999.99     1.41      0.0000     -0.00 LINEAR  3.9984E-03    113.64  0.0000E+00      0.00
   80.00      0.00      1.55  -999.99     1.55      0.0000     -0.00 LINEAR  4.0611E-03    111.15  0.0000E+00      0.00
   84.00      0.00      1.63  -999.99     1.63      0.0000     -0.00 LINEAR  4.1031E-03    108.99  0.0000E+00      0.00
   88.00      0.00      1.68  -999.99     1.68      0.0000     -0.00 LINEAR  4.1240E-03    107.17  0.0000E+00      0.00
   92.00      0.00      1.68  -999.99     1.68      0.0000     -0.00 LINEAR  4.1237E-03    105.71  0.0000E+00      0.00
   96.00      0.00      1.63  -999.99     1.63      0.0000     -0.00 LINEAR  4.1022E-03    104.60  0.0000E+00      0.00
  100.00      0.00      1.54  -999.99     1.54      0.0000     -0.00 LINEAR  4.0597E-03    103.86  0.0000E+00      0.00
  104.00      0.00      1.41  -999.99     1.41      0.0000     -0.00 LINEAR  3.9965E-03    103.49  0.0000E+00      0.00
  108.00      0.00      1.22  -999.99     1.22      0.0000     -0.00 LINEAR  3.9130E-03    103.49  0.0000E+00      0.00
  112.00      0.00      0.99  -999.99     0.99      0.0000     -0.00 LINEAR  3.8098E-03    103.87  0.0000E+00      0.00
  116.00      0.00      0.71  -999.99     0.71      0.0000     -0.00 LINEAR  3.6877E-03    104.61  0.0000E+00      0.00
  120.00      0.00      0.37  -999.99     0.37      0.0000     -0.00 LINEAR  3.5473E-03    105.72  0.0000E+00      0.00
  124.00      0.00     -0.02  -999.99    -0.02      0.0000     -0.00 LINEAR  3.3897E-03    107.19  0.0000E+00      0.00
  128.00      0.00     -0.48  -999.99    -0.48      0.0000     -0.00 LINEAR  3.2159E-03    109.01  0.0000E+00      0.00
  132.00      0.00     -1.01  -999.99    -1.01      0.0000     -0.00 LINEAR  3.0269E-03    111.18  0.0000E+00      0.00
  136.00      0.00     -1.61  -999.99    -1.61      0.0000     -0.00 LINEAR  2.8238E-03    113.68  0.0000E+00      0.00
  140.00      0.00     -2.30  -999.99    -2.30      0.0000     -0.00 LINEAR  2.6078E-03    116.50  0.0000E+00      0.00
  144.00      0.00     -3.10  -999.99    -3.10      0.0000     -0.00 LINEAR  2.3801E-03    119.63  0.0000E+00      0.00
  148.00      0.00     -4.01  -999.99    -4.01      0.0000     -0.00 LINEAR  2.1418E-03    123.05  0.0000E+00      0.00
  152.00      0.00     -5.08  -999.99    -5.08      0.0000     -0.00 LINEAR  1.8943E-03    126.75  0.0000E+00      0.00
  156.00      0.00     -6.34  -999.99    -6.34      0.0000     -0.00 LINEAR  1.6386E-03    130.70  0.0000E+00      0.00
  160.00      0.00     -7.86  -999.99    -7.86      0.0000     -0.00 LINEAR  1.3760E-03    134.90  0.0000E+00      0.00
  164.00      0.00     -9.74  -999.99    -9.74      0.0000     -0.00 LINEAR  1.1076E-03    139.31  0.0000E+00      0.00
  168.00      0.00    -12.20  -999.99   -12.20      0.0000     -0.00 LINEAR  8.3470E-04    143.92  0.0000E+00      0.00
  172.00      0.00    -15.69  -999.99   -15.69      0.0000     -0.00 LINEAR  5.5836E-04    148.70  0.0000E+00      0.00
  176.00      0.00    -21.69  -999.99   -21.69      0.0000     -0.00 LINEAR  2.7975E-04    153.63  0.0000E+00      0.00
  180.00      0.00   -999.99  -999.99  -999.99      0.0000      0.00         4.0927E-14    -21.32  0.0000E+00      0.00
    0.00      4.00   -999.99  -999.99  -999.99      0.0000      0.00         0.0000E+00      0.00  0.0000E+00      0.00
    4.00      4.00    -21.68  -999.99   -21.68      0.0000     -0.00 LINEAR  2.8029E-04   -164.27  0.0000E+00      0.00
    8.00      4.00    -15.67  -999.99   -15.67      0.0000     -0.00 LINEAR  5.5944E-04   -169.14  0.0000E+00      0.00
   12.00      4.00    -12.18  -999.99   -12.18      0.0000     -0.00 LINEAR  8.3629E-04   -174.06  0.0000E+00      0.00
   16.00      4.00     -9.72  -999.99    -9.72      0.0000     -0.00 LINEAR  1.1097E-03   -179.01  0.0000E+00      0.00
   20.00      4.00     -7.84  -999.99    -7.84      0.0000     -0.00 LINEAR  1.3785E-03    176.03  0.0000E+00      0.00
   24.00      4.00     -6.32  -999.99    -6.32      0.0000     -0.00 LINEAR  1.6415E-03    171.09  0.0000E+00      0.00
   28.00      4.00     -5.06  -999.99    -5.06      0.0000     -0.00 LINEAR  1.8975E-03    166.19  0.0000E+00      0.00
   32.00      4.00     -4.00  -999.99    -4.00      0.0000     -0.00 LINEAR  2.1453E-03    161.36  0.0000E+00      0.00
   36.00      4.00     -3.08  -999.99    -3.08      0.0000     -0.00 LINEAR  2.3838E-03    156.62  0.0000E+00      0.00
   40.00      4.00     -2.29  -999.99    -2.29      0.0000     -0.00 LINEAR  2.6117E-03    151.99  0.0000E+00      0.00
   44.00      4.00     -1.60  -999.99    -1.60      0.0000     -0.00 LINEAR  2.8277E-03    147.49  0.0000E+00      0.00
   48.00      4.00     -1.00  -999.99    -1.00      0.0000     -0.00 LINEAR  3.0308E-03    143.15  0.0000E+00      0.00
   52.00      4.00     -0.47  -999.99    -0.47      0.0000     -0.00 LINEAR  3.2197E-03    138.98  0.0000E+00      0.00
   56.00      4.00     -0.01  -999.99    -0.01      0.0000     -0.00 LINEAR  3.3934E-03    135.01  0.0000E+00      0.00
   60.00      4.00      0.38  -999.99     0.38      0.0000     -0.00 LINEAR  3.5507E-03    131.26  0.0000E+00      0.00
   64.00      4.00      0.71  -999.99     0.71      0.0000     -0.00 LINEAR  3.6908E-03    127.75  0.0000E+00      0.00
   68.00      4.00      1.00  -999.99     1.00      0.0000     -0.00 LINEAR  3.8126E-03    124.48  0.0000E+00      0.00
   72.00      4.00      1.23  -999.99     1.23      0.0000     -0.00 LINEAR  3.9154E-03    121.48  0.0000E+00      0.00
   76.00      4.00      1.41  -999.99     1.41      0.0000     -0.00 LINEAR  3.9984E-03    118.77  0.0000E+00      0.00
   80.00      4.00      1.55  -999.99     1.55      0.0000     -0.00 LINEAR  4.0611E-03    116.35  0.0000E+00      0.00
   84.00      4.00      1.63  -999.99     1.63      0.0000     -0.00 LINEAR  4.1031E-03    114.24  0.0000E+00      0.00
   88.00      4.00      1.68  -999.99     1.68      0.0000     -0.00 LINEAR  4.1240E-03    112.45  0.0000E+00      0.00
   92.00      4.00      1.68  -999.99     1.68      0.0000     -0.00 LINEAR  4.1237E-03    110.99  0.0000E+00      0.00
   96.00      4.00      1.63  -999.99     1.63      0.0000     -0.00 LINEAR  4.1022E-03    109.86  0.0000E+00      0.00
  100.00      4.00      1.54  -999.99     1.54      0.0000     -0.00 LINEAR  4.0597E-03    109.07  0.0000E+00      0.00
  104.00      4.00      1.41  -999.99     1.41      0.0000     -0.00 LINEAR  3.9965E-03    108.62  0.0000E+00      0.00
  108.00      4.00      1.22  -999.99     1.22      0.0000     -0.00 LINEAR  3.9130E-03    108.52  0.0000E+00      0.00
  112.00      4.00      0.99  -999.99     0.99      0.0000     -0.00 LINEAR  3.8098E-03    108.77  0.0000E+00      0.00
  116.00      4.00      0.71  -999.99     0.71      0.0000     -0.00 LINEAR  3.6877E-03    109.36  0.0000E+00      0.00
  120.00      4.00      0.37  -999.99     0.37      0.0000     -0.00 LINEAR  3.5473E-03    110.29  0.0000E+00      0.00
  124.00      4.00     -0.02  -999.99    -0.02      0.0000     -0.00 LINEAR  3.3897E-03    111.57  0.0000E+00      0.00
  128.00      4.00     -0.48  -999.99    -0.48      0.0000     -0.00 LINEAR  3.2159E-03    113.17  0.0000E+00      0.00
  132.00      4.00     -1.01  -999.99    -1.01      0.0000     -0.00 LINEAR  3.0269E-03    115.10  0.0000E+00      0.00
  136.00      4.00     -1.61  -999.99    -1.61      0.0000     -0.00 LINEAR  2.8238E-03    117.35  0.0000E+00      0.00
  140.00      4.00     -2.30  -999.99    -2.30      0.0000     -0.00 LINEAR  2.6078E-03    119.90  0.0000E+00      0.00
  144.00      4.00     -3.10  -999.99    -3.10      0.0000     -0.00 LINEAR  2.3801E-03    122.73  0.0000E+00      0.00
  148.00      4.00     -4.01  -999.99    -4.01      0.0000     -0.00 LINEAR  2.1418E-03    125.85  0.0000E+00      0.00
  152.00      4.00     -5.08  -999.99    -5.08      0.0000     -0.00 LINEAR  1.8943E-03    129.23  0.0000E+00      0.00
  156.00      4.00     -6.34  -999.99    -6.34      0.0000     -0.00 LINEAR  1.6386E-03    132.85  0.0000E+00      0.00
  160.00      4.00     -7.86  -999.99    -7.86      0.0000     -0.00 LINEAR  1.3760E-03    136.71  0.0000E+00      0.00
  164.00      4.00     -9.74  -999.99    -9.74      0.0000     -0.00 LINEAR  1.1076E-03    140.77  0.0000E+00      0.00
  168.00      4.00    -12.20  -999.99   -12.20      0.0000     -0.00 LINEAR  8.3470E-04    145.01  0.0000E+00      0.00
  172.00      4.00    -15.69  -999.99   -15.69      0.0000     -0.00 LINEAR  5.5836E-04    149.43  0.0000E+00      0.00
  176.00      4.00    -21.69  -999.99   -21.69      0.0000     -0.00 LINEAR  2.7975E-04    153.99  0.0000E+00      0.00
  180.00      4.00   -999.99  -999.99  -999.99      0.0000      0.00         4.0927E-14    -21.32  0.0000E+00      0.00
    0.00      8.00   -999.99  -999.99  -999.99      0.0000      0.00         0.0000E+00      0.00  0.0000E+00      0.00
    4.00      8.00    -21.68  -999.99   -21.68      0.0000     -0.00 LINEAR  2.8029E-04   -163.88  0.0000E+00      0.00
    8.00      8.00    -15.67  -999.99   -15.67      0.0000     -0.00 LINEAR  5.5944E-04   -168.36  0.0000E+00      0.00
   12.00      8.00    -12.18  -999.99   -12.18      0.0000     -0.00 LINEAR  8.3629E-04   -172.89  0.0000E+00      0.00
   16.00      8.00     -9.72  -999.99    -9.72      0.0000     -0.00 LINEAR  1.1097E-03   -177.46  0.0000E+00      0.00
   20.00      8.00     -7.84  -999.99    -7.84      0.0000     -0.00 LINEAR  1.3785E-03    177.95  0.0000E+00      0.00
   24.00      8.00     -6.32  -999.99    -6.32      0.0000     -0.00 LINEAR  1.6415E-03    173.38  0.0000E+00      0.00
   28.00      8.00     -5.06  -999.99    -5.06      0.0000     -0.00 LINEAR  1.8975E-03    168.83  0.0000E+00      0.00
   32.00      8.00     -4.00  -999.99    -4.00      0.0000     -0.00 LINEAR  2.1453E-03    164.34  0.0000E+00      0.00
   36.00      8.00     -3.08  -999.99    -3.08      0.0000     -0.00 LINEAR  2.3838E-03    159.92  0.0000E+00      0.00
   40.00      8.00     -2.29  -999.99    -2.29      0.0000     -0.00 LINEAR  2.6117E-03    155.60  0.0000E+00      0.00
   44.00      8.00     -1.60  -999.99    -1.60      0.0000     -0.00 LINEAR  2.8277E-03    151.39  0.0000E+00      0.00
   48.00      8.00     -1.00  -999.99    -1.00      0.0000     -0.00 LINEAR  3.0308E-03    147.32  0.0000E+00      0.00
   52.00      8.00     -0.47  -999.99    -0.47      0.0000     -0.00 LINEAR  3.2197E-03    143.41  0.0000E+00      0.00
   56.00      8.00     -0.01  -999.99    -0.01      0.0000     -0.00 LINEAR  3.3934E-03    139.67  0.0000E+00      0.00
   60.00      8.00      0.38  -999.99     0.38      0.0000     -0.00 LINEAR  3.5507E-03    136.12  0.0000E+00      0.00
   64.00      8.00      0.71  -999.99     0.71      0.0000     -0.00 LINEAR  3.6908E-03    132.79  0.0000E+00      0.00
   68.00      8.00      1.00  -999.99     1.00      0.0000     -0.00 LINEAR  3.8126E-03    129.69  0.0000E+00      0.00
   72.00      8.00      1.23  -999.99     1.23      0.0000     -0.00 LINEAR  3.9154E-03    126.83  0.0000E+00      0.00
   76.00      8.00      1.41  -999.99     1.41      0.0000     -0.00 LINEAR  3.9984E-03    124.22  0.0000E+00      0.00
   80.00      8.00      1.55  -999.99     1.55      0.0000     -0.00 LINEAR  4.0611E-03    121.88  0.0000E+00      0.00
   84.00      8.00      1.63  -999.99     1.63      0.0000     -0.00 LINEAR  4.1031E-03    119.83  0.0000E+00      0.00
   88.00      8.00      1.68  -999.99     1.68      0.0000     -0.00 LINEAR  4.1240E-03    118.06  0.0000E+00      0.00
   92.00      8.00      1.68  -999.99     1.68      0.0000     -0.00 LINEAR  4.1237E-03    116.60  0.0000E+00      0.00
   96.00      8.00      1.63  -999.99     1.63      0.0000     -0.00 LINEAR  4.1022E-03    115.44  0.0000E+00      0.00
  100.00      8.00      1.54  -999.99     1.54      0.0000     -0.00 LINEAR  4.0597E-03    114.60  0.0000E+00      0.00
  104.00      8.00      1.41  -999.99     1.41      0.0000     -0.00 LINEAR  3.9965E-03    114.07  0.0000E+00      0.00
  108.00      8.00      1.22  -999.99     1.22      0.0000     -0.00 LINEAR  3.9130E-03    113.86  0.0000E+00      0.00
  112.00      8.00      0.99  -999.99     0.99      0.0000     -0.00 LINEAR  3.8098E-03    113.97  0.0000E+00      0.00
  116.00      8.00      0.71  -999.99     0.71      0.0000     -0.00 LINEAR  3.6877E-03    114.41  0.0000E+00      0.00
  120.00      8.00      0.37  -999.99     0.37      0.0000     -0.00 LINEAR  3.5473E-03    115.16  0.0000E+00      0.00
  124.00      8.00     -0.02  -999.99    -0.02      0.0000     -0.00 LINEAR  3.3897E-03    116.22  0.0000E+00      0.00
  128.00      8.00     -0.48  -999.99    -0.48      0.0000     -0.00 LINEAR  3.2159E-03    117.60  0.0000E+00      0.00
  132.00      8.00     -1.01  -999.99    -1.01      0.0000     -0.00 LINEAR  3.0269E-03    119.28  0.0000E+00      0.00
  136.00      8.00     -1.61  -999.99    -1.61      0.0000     -0.00 LINEAR  2.8238E-03    121.25  0.0000E+00      0.00
  140.00      8.00     -2.30  -999.99    -2.30      0.0000     -0.00 LINEAR  2.6078E-03    123.50  0.0000E+00      0.00
  144.00      8.00     -3.10  -999.99    -3.10      0.0000     -0.00 LINEAR  2.3801E-03    126.04  0.0000E+00      0.00
  148.00      8.00     -4.01  -999.99    -4.01      0.0000     -0.00 LINEAR  2.1418E-03    128.83  0.0000E+00      0.00
  152.00      8.00     -5.08  -999.99    -5.08      0.0000     -0.00 LINEAR  1.8943E-03    131.87  0.0000E+00      0.00
  156.00      8.00     -6.34  -999.99    -6.34      0.0000     -0.00 LINEAR  1.6386E-03    135.14  0.0000E+00      0.00
  160.00      8.00     -7.86  -999.99    -7.86      0.0000     -0.00 LINEAR  1.3760E-03    138.63  0.0000E+00      0.00
  164.00      8.00     -9.74  -999.99    -9.74      0.0000     -0.00 LINEAR  1.1076E-03    142.31  0.0000E+00      0.00
  168.00      8.00    -12.20  -999.99   -12.20      0.0000     -0.00 LINEAR  8.3470E-04    146.18  0.0000E+00      0.00
  172.00      8.00    -15.69  -999.99   -15.69      0.0000     -0.00 LINEAR  5.5836E-04    150.21  0.0000E+00      0.00
  176.00      8.00    -21.69  -999.99   -21.69      0.0000     -0.00 LINEAR  2.7975E-04    154.39  0.0000E+00      0.00
  180.00      8.00   -999.99  -999.99  -999.99      0.0000      0.00         4.0927E-14    -21.32  0.0000E+00      0.00
    0.00     12.00   -999.99  -999.99  -999.99      0.0000      0.00         0.0000E+00      0.00  0.0000E+00      0.00
    4.00     12.00    -21.68  -999.99   -21.68      0.0000     -0.00 LINEAR  2.8029E-04   -163.47  0.0000E+00      0.00
    8.00     12.00    -15.67  -999.99   -15.67      0.0000     -0.00 LINEAR  5.5944E-04   -167.53  0.0000E+00      0.00
   12.00     12.00    -12.18  -999.99   -12.18      0.0000     -0.00 LINEAR  8.3629E-04   -171.66  0.0000E+00      0.00
   16.00     12.00     -9.72  -999.99    -9.72      0.0000     -0.00 LINEAR  1.1097E-03   -175.83  0.0000E+00      0.00
   20.00     12.00     -7.84  -999.99    -7.84      0.0000     -0.00 LINEAR  1.3785E-03    179.98  0.0000E+00      0.00
   24.00     12.00     -6.32  -999.99    -6.32      0.0000     -0.00 LINEAR  1.6415E-03    175.78  0.0000E+00      0.00
   28.00     12.00     -5.06  -999.99    -5.06      0.0000     -0.00 LINEAR  1.8975E-03    171.61  0.0000E+00      0.00
   32.00     12.00     -4.00  -999.99    -4.00      0.0000     -0.00 LINEAR  2.1453E-03    167.47  0.0000E+00      0.00
   36.00     12.00     -3.08  -999.99    -3.08      0.0000     -0.00 LINEAR  2.3838E-03    163.40  0.0000E+00      0.00
   40.00     12.00     -2.29  -999.99    -2.29      0.0000     -0.00 LINEAR  2.6117E-03    159.40  0.0000E+00      0.00
   44.00     12.00     -1.60  -999.99    -1.60      0.0000     -0.00 LINEAR  2.8277E-03    155.50  0.0000E+00      0.00
   48.00     12.00     -1.00  -999.99    -1.00      0.0000     -0.00 LINEAR  3.0308E-03    151.72  0.0000E+00      0.00
   52.00     12.00     -0.47  -999.99    -0.47      0.0000     -0.00 LINEAR  3.2197E-03    148.07  0.0000E+00      0.00
   56.00     12.00     -0.01  -999.99    -0.01      0.0000     -0.00 LINEAR  3.3934E-03    144.58  0.0000E+00      0.00
   60.00     12.00      0.38  -999.99     0.38      0.0000     -0.00 LINEAR  3.5507E-03    141.25  0.0000E+00      0.00
   64.00     12.00      0.71  -999.99     0.71      0.0000     -0.00 LINEAR  3.6908E-03    138.11  0.0000E+00      0.00
   68.00     12.00      1.00  -999.99     1.00      0.0000     -0.00 LINEAR  3.8126E-03    135.18  0.0000E+00      0.00
   72.00     12.00      1.23  -999.99     1.23      0.0000     -0.00 LINEAR  3.9154E-03    132.45  0.0000E+00      0.00
   76.00     12.00      1.41  -999.99     1.41      0.0000     -0.00 LINEAR  3.9984E-03    129.96  0.0000E+00      0.00
   80.00     12.00      1.55  -999.99     1.55      0.0000     -0.00 LINEAR  4.0611E-03    127.71  0.0000E+00      0.00
   84.00     12.00      1.63  -999.99     1.63      0.0000     -0.00 LINEAR  4.1031E-03    125.71  0.0000E+00      0.00
   88.00     12.00      1.68  -999.99     1.68      0.0000     -0.00 LINEAR  4.1240E-03    123.98  0.0000E+00      0.00
   92.00     12.00      1.68  -999.99     1.68      0.0000     -0.00 LINEAR  4.1237E-03    122.51  0.0000E+00      0.00
   96.00     12.00      1.63  -999.99     1.63      0.0000     -0.00 LINEAR  4.1022E-03    121.33  0.0000E+00      0.00
  100.00     12.00      1.54  -999.99     1.54      0.0000     -0.00 LINEAR  4.0597E-03    120.43  0.0000E+00      0.00
  104.00     12.00      1.41  -999.99     1.41      0.0000     -0.00 LINEAR  3.9965E-03    119.81  0.0000E+00      0.00
  108.00     12.00      1.22  -999.99     1.22      0.0000     -0.00 LINEAR  3.9130E-03    119.49  0.0000E+00      0.00
  112.00     12.00      0.99  -999.99     0.99      0.0000     -0.00 LINEAR  3.8098E-03    119.46  0.0000E+00      0.00
  116.00     12.00      0.71  -999.99     0.71      0.0000     -0.00 LINEAR  3.6877E-03    119.73  0.0000E+00      0.00
  120.00     12.00      0.37  -999.99     0.37      0.0000     -0.00 LINEAR  3.5473E-03    120.28  0.0000E+00      0.00
  124.00     12.00     -0.02  -999.99    -0.02      0.0000     -0.00 LINEAR  3.3897E-03    121.13  0.0000E+00      0.00
  128.00     12.00     -0.48  -999.99    -0.48      0.0000     -0.00 LINEAR  3.2159E-03    122.26  0.0000E+00      0.00
  132.00     12.00     -1.01  -999.99    -1.01      0.0000     -0.00 LINEAR  3.0269E-03    123.67  0.0000E+00      0.00
  136.00     12.00     -1.61  -999.99    -1.61      0.0000     -0.00 LINEAR  2.8238E-03    125.36  0.0000E+00      0.00
  140.00     12.00     -2.30  -999.99    -2.30      0.0000     -0.00 LINEAR  2.6078E-03    127.31  0.0000E+00      0.00
  144.00     12.00     -3.10  -999.99    -3.10      0.0000     -0.00 LINEAR  2.3801E-03    129.51  0.0000E+00      0.00
  148.00     12.00     -4.01  -999.99    -4.01      0.0000     -0.00 LINEAR  2.1418E-03    131.96  0.0000E+00      0.00
  152.00     12.00     -5.08  -999.99    -5.08      0.0000     -0.00 LINEAR  1.8943E-03    134.65  0.0000E+00      0.00
  156.00     12.00     -6.34  -999.99    -6.34      0.0000     -0.00 LINEAR  1.6386E-03    137.55  0.0000E+00      0.00
  160.00     12.00     -7.86  -999.99    -7.86      0.0000     -0.00 LINEAR  1.3760E-03    140.65  0.0000E+00      0.00
  164.00     12.00     -9.74  -999.99    -9.74      0.0000     -0.00 LINEAR  1.1076E-03    143.94  0.0000E+00      0.00
  168.00     12.00    -12.20  -999.99   -12.20      0.0000     -0.00 LINEAR  8.3470E-04    147.41  0.0000E+00      0.00
  172.00     12.00    -15.69  -999.99   -15.69      0.0000     -0.00 LINEAR  5.5836E-04    151.04  0.0000E+00      0.00
  176.00     12.00    -21.69  -999.99   -21.69      0.0000     -0.00 LINEAR  2.7975E-04    154.80  0.0000E+00      0.00
  180.00     12.00   -999.99  -999.99  -999.99      0.0000      0.00         4.0927E-14    -21.32  0.0000E+00      0.00
    0.00     16.00   -999.99  -999.99  -999.99      0.0000      0.00         0.0000E+00      0.00  0.0000E+00      0.00
    4.00     16.00    -21.68  -999.99   -21.68      0.0000     -0.00 LINEAR  2.8029E-04   -163.04  0.0000E+00      0.00
    8.00     16.00    -15.67  -999.99   -15.67      0.0000     -0.00 LINEAR  5.5944E-04   -166.67  0.0000E+00      0.00
   12.00     16.00    -12.18  -999.99   -12.18      0.0000     -0.00 LINEAR  8.3629E-04   -170.37  0.0000E+00      0.00
   16.00     16.00     -9.72  -999.99    -9.72      0.0000     -0.00 LINEAR  1.1097E-03   -174.12  0.0000E+00      0.00
   20.00     16.00     -7.84  -999.99    -7.84      0.0000     -0.00 LINEAR  1.3785E-03   -177.90  0.0000E+00      0.00
   24.00     16.00     -6.32  -999.99    -6.32      0.0000     -0.00 LINEAR  1.6415E-03    178.30  0.0000E+00      0.00
   28.00     16.00     -5.06  -999.99    -5.06      0.0000     -0.00 LINEAR  1.8975E-03    174.52  0.0000E+00      0.00
   32.00     16.00     -4.00  -999.99    -4.00      0.0000     -0.00 LINEAR  2.1453E-03    170.76  0.0000E+00      0.00
   36.00     16.00     -3.08  -999.99    -3.08      0.0000     -0.00 LINEAR  2.3838E-03    167.04  0.0000E+00      0.00
   40.00     16.00     -2.29  -999.99    -2.29      0.0000     -0.00 LINEAR  2.6117E-03    163.38  0.0000E+00      0.00
   44.00     16.00     -1.60  -999.99    -1.60      0.0000     -0.00 LINEAR  2.8277E-03    159.80  0.0000E+00      0.00
   48.00     16.00     -1.00  -999.99    -1.00      0.0000     -0.00 LINEAR  3.0308E-03    156.32  0.0000E+00      0.00
   52.00     16.00     -0.47  -999.99    -0.47      0.0000     -0.00 LINEAR  3.2197E-03    152.95  0.0000E+00      0.00
   56.00     16.00     -0.01  -999.99    -0.01      0.0000     -0.00 LINEAR  3.3934E-03    149.71  0.0000E+00      0.00
   60.00     16.00      0.38  -999.99     0.38      0.0000     -0.00 LINEAR  3.5507E-03    146.61  0.0000E+00      0.00
   64.00     16.00      0.71  -999.99     0.71      0.0000     -0.00 LINEAR  3.6908E-03    143.68  0.0000E+00      0.00
   68.00     16.00      1.00  -999.99     1.00      0.0000     -0.00 LINEAR  3.8126E-03    140.92  0.0000E+00      0.00
   72.00     16.00      1.23  -999.99     1.23      0.0000     -0.00 LINEAR  3.9154E-03    138.35  0.0000E+00      0.00
   76.00     16.00      1.41  -999.99     1.41      0.0000     -0.00 LINEAR  3.9984E-03    135.97  0.0000E+00      0.00
   80.00     16.00      1.55  -999.99     1.55      0.0000     -0.00 LINEAR  4.0611E-03    133.81  0.0000E+00      0.00
   84.00     16.00      1.63  -999.99     1.63      0.0000     -0.00 LINEAR  4.1031E-03    131.87  0.0000E+00      0.00
   88.00     16.00      1.68  -999.99     1.68      0.0000     -0.00 LINEAR  4.1240E-03    130.17  0.0000E+00      0.00
   92.00     16.00      1.68  -999.99     1.68      0.0000     -0.00 LINEAR  4.1237E-03    128.70  0.0000E+00      0.00
   96.00     16.00      1.63  -999.99     1.63      0.0000     -0.00 LINEAR  4.1022E-03    127.49  0.0000E+00      0.00
  100.00     16.00      1.54  -999.99     1.54      0.0000     -0.00 LINEAR  4.0597E-03    126.52  0.0000E+00      0.00
  104.00     16.00      1.41  -999.99     1.41      0.0000     -0.00 LINEAR  3.9965E-03    125.82  0.0000E+00      0.00
  108.00     16.00      1.22  -999.99     1.22      0.0000     -0.00 LINEAR  3.9130E-03    125.38  0.0000E+00      0.00
  112.00     16.00      0.99  -999.99     0.99      0.0000     -0.00 LINEAR  3.8098E-03    125.20  0.0000E+00      0.00
  116.00     16.00      0.71  -999.99     0.71      0.0000     -0.00 LINEAR  3.6877E-03    125.29  0.0000E+00      0.00
  120.00     16.00      0.37  -999.99     0.37      0.0000     -0.00 LINEAR  3.5473E-03    125.65  0.0000E+00      0.00
  124.00     16.00     -0.02  -999.99    -0.02      0.0000     -0.00 LINEAR  3.3897E-03    126.26  0.0000E+00      0.00
  128.00     16.00     -0.48  -999.99    -0.48      0.0000     -0.00 LINEAR  3.2159E-03    127.14  0.0000E+00      0.00
  132.00     16.00     -1.01  -999.99    -1.01      0.0000     -0.00 LINEAR  3.0269E-03    128.28  0.0000E+00      0.00
  136.00     16.00     -1.61  -999.99    -1.61      0.0000     -0.00 LINEAR  2.8238E-03    129.66  0.0000E+00      0.00
  140.00     16.00     -2.30  -999.99    -2.30      0.0000     -0.00 LINEAR  2.6078E-03    131.29  0.0000E+00      0.00
  144.00     16.00     -3.10  -999.99    -3.10      0.0000     -0.00 LINEAR  2.3801E-03    133.16  0.0000E+00      0.00
  148.00     16.00     -4.01  -999.99    -4.01      0.0000     -0.00 LINEAR  2.1418E-03    135.25  0.0000E+00      0.00
  152.00     16.00     -5.08  -999.99    -5.08      0.0000     -0.00 LINEAR  1.8943E-03    137.55  0.0000E+00      0.00
  156.00     16.00     -6.34  -999.99    -6.34      0.0000     -0.00 LINEAR  1.6386E-03    140.06  0.0000E+00      0.00
  160.00     16.00     -7.86  -999.99    -7.86      0.0000     -0.00 LINEAR  1.3760E-03    142.77  0.0000E+00      0.00
  164.00     16.00     -9.74  -999.99    -9.74      0.0000     -0.00 LINEAR  1.1076E-03    145.65  0.0000E+00      0.00
  168.00     16.00    -12.20  -999.99   -12.20      0.0000     -0.00 LINEAR  8.3470E-04    148.70  0.0000E+00      0.00
  172.00     16.00    -15.69  -999.99   -15.69      0.0000     -0.00 LINEAR  5.5836E-04    151.90  0.0000E+00      0.00
  176.00     16.00    -21.69  -999.99   -21.69      0.0000     -0.00 LINEAR  2.7975E-04    155.23  0.0000E+00      0.00
  180.00     16.00   -999.99  -999.99  -999.99      0.0000      0.00         4.0927E-14    -21.32  0.0000E+00      0.00
    0.00     20.00   -999.99  -999.99  -999.99      0.0000      0.00         0.0000E+00      0.00  0.0000E+00      0.00
    4.00     20.00    -21.68  -999.99   -21.68      0.0000     -0.00 LINEAR  2.8029E-04   -162.59  0.0000E+00      0.00
    8.00     20.00    -15.67  -999.99   -15.67      0.0000     -0.00 LINEAR  5.5944E-04   -165.78  0.0000E+00      0.00
   12.00     20.00    -12.18  -999.99   -12.18      0.0000     -0.00 LINEAR  8.3629E-04   -169.03  0.0000E+00      0.00
   16.00     20.00     -9.72  -999.99    -9.72      0.0000     -0.00 LINEAR  1.1097E-03   -172.35  0.0000E+00      0.00
   20.00     20.00     -7.84  -999.99    -7.84      0.0000     -0.00 LINEAR  1.3785E-03   -175.70  0.0000E+00      0.00
   24.00     20.00     -6.32  -999.99    -6.32      0.0000     -0.00 LINEAR  1.6415E-03   -179.08  0.0000E+00      0.00
   28.00     20.00     -5.06  -999.99    -5.06      0.0000     -0.00 LINEAR  1.8975E-03    177.54  0.0000E+00      0.00
   32.00     20.00     -4.00  -999.99    -4.00      0.0000     -0.00 LINEAR  2.1453E-03    174.17  0.0000E+00      0.00
   36.00     20.00     -3.08  -999.99    -3.08      0.0000     -0.00 LINEAR  2.3838E-03    170.82  0.0000E+00      0.00
   40.00     20.00     -2.29  -999.99    -2.29      0.0000     -0.00 LINEAR  2.6117E-03    167.52  0.0000E+00      0.00
   44.00     20.00     -1.60  -999.99    -1.60      0.0000     -0.00 LINEAR  2.8277E-03    164.28  0.0000E+00      0.00
   48.00     20.00     -1.00  -999.99    -1.00      0.0000     -0.00 LINEAR  3.0308E-03    161.10  0.0000E+00      0.00
   52.00     20.00     -0.47  -999.99    -0.47      0.0000     -0.00 LINEAR  3.2197E-03    158.02  0.0000E+00      0.00
   56.00     20.00     -0.01  -999.99    -0.01      0.0000     -0.00 LINEAR  3.3934E-03    155.05  0.0000E+00      0.00
   60.00     20.00      0.38  -999.99     0.38      0.0000     -0.00 LINEAR  3.5507E-03    152.19  0.0000E+00      0.00
   64.00     20.00      0.71  -999.99     0.71      0.0000     -0.00 LINEAR  3.6908E-03    149.47  0.0000E+00      0.00
   68.00     20.00      1.00  -999.99     1.00      0.0000     -0.00 LINEAR  3.8126E-03    146.89  0.0000E+00      0.00
   72.00     20.00      1.23  -999.99     1.23      0.0000     -0.00 LINEAR  3.9154E-03    144.47  0.0000E+00      0.00
   76.00     20.00      1.41  -999.99     1.41      0.0000     -0.00 LINEAR  3.9984E-03    142.22  0.0000E+00      0.00
   80.00     20.00      1.55  -999.99     1.55      0.0000     -0.00 LINEAR  4.0611E-03    140.15  0.0000E+00      0.00
   84.00     20.00      1.63  -999.99     1.63      0.0000     -0.00 LINEAR  4.1031E-03    138.28  0.0000E+00      0.00
   88.00     20.00      1.68  -999.99     1.68      0.0000     -0.00 LINEAR  4.1240E-03    136.60  0.0000E+00      0.00
   92.00     20.00      1.68  -999.99     1.68      0.0000     -0.00 LINEAR  4.1237E-03    135.14  0.0000E+00      0.00
   96.00     20.00      1.63  -999.99     1.63      0.0000     -0.00 LINEAR  4.1022E-03    133.89  0.0000E+00      0.00
  100.00     20.00      1.54  -999.99     1.54      0.0000     -0.00 LINEAR  4.0597E-03    132.87  0.0000E+00      0.00
  104.00     20.00      1.41  -999.99     1.41      0.0000     -0.00 LINEAR  3.9965E-03    132.07  0.0000E+00      0.00
  108.00     20.00      1.22  -999.99     1.22      0.0000     -0.00 LINEAR  3.9130E-03    131.50  0.0000E+00      0.00
  112.00     20.00      0.99  -999.99     0.99      0.0000     -0.00 LINEAR  3.8098E-03    131.17  0.0000E+00      0.00
  116.00     20.00      0.71  -999.99     0.71      0.0000     -0.00 LINEAR  3.6877E-03    131.08  0.0000E+00      0.00
  120.00     20.00      0.37  -999.99     0.37      0.0000     -0.00 LINEAR  3.5473E-03    131.22  0.0000E+00      0.00
  124.00     20.00     -0.02  -999.99    -0.02      0.0000     -0.00 LINEAR  3.3897E-03    131.60  0.0000E+00      0.00
  128.00     20.00     -0.48  -999.99    -0.48      0.0000     -0.00 LINEAR  3.2159E-03    132.22  0.0000E+00      0.00
  132.00     20.00     -1.01  -999.99    -1.01      0.0000     -0.00 LINEAR  3.0269E-03    133.06  0.0000E+00      0.00
  136.00     20.00     -1.61  -999.99    -1.61      0.0000     -0.00 LINEAR  2.8238E-03    134.13  0.0000E+00      0.00
  140.00     20.00     -2.30  -999.99    -2.30      0.0000     -0.00 LINEAR  2.6078E-03    135.43  0.0000E+00      0.00
  144.00     20.00     -3.10  -999.99    -3.10      0.0000     -0.00 LINEAR  2.3801E-03    136.94  0.0000E+00      0.00
  148.00     20.00     -4.01  -999.99    -4.01      0.0000     -0.00 LINEAR  2.1418E-03    138.66  0.0000E+00      0.00
  152.00     20.00     -5.08  -999.99    -5.08      0.0000     -0.00 LINEAR  1.8943E-03    140.58  0.0000E+00      0.00
  156.00     20.00     -6.34  -999.99    -6.34      0.0000     -0.00 LINEAR  1.6386E-03    142.68  0.0000E+00      0.00
  160.00     20.00     -7.86  -999.99    -7.86      0.0000     -0.00 LINEAR  1.3760E-03    144.97  0.0000E+00      0.00
  164.00     20.00     -9.74  -999.99    -9.74      0.0000     -0.00 LINEAR  1.1076E-03    147.43  0.0000E+00      0.00
  168.00     20.00    -12.20  -999.99   -12.20      0.0000     -0.00 LINEAR  8.3470E-04    150.04  0.0000E+00      0.00
  172.00     20.00    -15.69  -999.99   -15.69      0.0000     -0.00 LINEAR  5.5836E-04    152.79  0.0000E+00      0.00
  176.00     20.00    -21.69  -999.99   -21.69      0.0000     -0.00 LINEAR  2.7975E-04    155.68  0.0000E+00      0.00
  180.00     20.00   -999.99  -999.99  -999.99      0.0000      0.00         4.0927E-14    -21.32  0.0000E+00      0.00
    0.00     24.00   -999.99  -999.99  -999.99      0.0000      0.00         0.0000E+00      0.00  0.0000E+00      0.00
    4.00     24.00    -21.68  -999.99   -21.68      0.0000     -0.00 LINEAR  2.8029E-04   -162.12  0.0000E+00      0.00
    8.00     24.00    -15.67  -999.99   -15.67      0.0000     -0.00 LINEAR  5.5944E-04   -164.85  0.0000E+00      0.00
   12.00     24.00    -12.18  -999.99   -12.18      0.0000     -0.00 LINEAR  8.3629E-04   -167.65  0.0000E+00      0.00
   16.00     24.00     -9.72  -999.99    -9.72      0.0000     -0.00 LINEAR  1.1097E-03   -170.52  0.0000E+00      0.00
   20.00     24.00     -7.84  -999.99    -7.84      0.0000     -0.00 LINEAR  1.3785E-03   -173.43  0.0000E+00      0.00
   24.00     24.00     -6.32  -999.99    -6.32      0.0000     -0.00 LINEAR  1.6415E-03   -176.37  0.0000E+00      0.00
   28.00     24.00     -5.06  -999.99    -5.06      0.0000     -0.00 LINEAR  1.8975E-03   -179.34  0.0000E+00      0.00
   32.00     24.00     -4.00  -999.99    -4.00      0.0000     -0.00 LINEAR  2.1453E-03    177.69  0.0000E+00      0.00
   36.00     24.00     -3.08  -999.99    -3.08      0.0000     -0.00 LINEAR  2.3838E-03    174.73  0.0000E+00      0.00
   40.00     24.00     -2.29  -999.99    -2.29      0.0000     -0.00 LINEAR  2.6117E-03    171.80  0.0000E+00      0.00
   44.00     24.00     -1.60  -999.99    -1.60      0.0000     -0.00 LINEAR  2.8277E-03    168.90  0.0000E+00      0.00
   48.00     24.00     -1.00  -999.99    -1.00      0.0000     -0.00 LINEAR  3.0308E-03    166.05  0.0000E+00      0.00
   52.00     24.00     -0.47  -999.99    -0.47      0.0000     -0.00 LINEAR  3.2197E-03    163.27  0.0000E+00      0.00
   56.00     24.00     -0.01  -999.99    -0.01      0.0000     -0.00 LINEAR  3.3934E-03    160.56  0.0000E+00      0.00
   60.00     24.00      0.38  -999.99     0.38      0.0000     -0.00 LINEAR  3.5507E-03    157.95  0.0000E+00      0.00
   64.00     24.00      0.71  -999.99     0.71      0.0000     -0.00 LINEAR  3.6908E-03    155.44  0.0000E+00      0.00
   68.00     24.00      1.00  -999.99     1.00      0.0000     -0.00 LINEAR  3.8126E-03    153.06  0.0000E+00      0.00
   72.00     24.00      1.23  -999.99     1.23      0.0000     -0.00 LINEAR  3.9154E-03    150.79  0.0000E+00      0.00
   76.00     24.00      1.41  -999.99     1.41      0.0000     -0.00 LINEAR  3.9984E-03    148.67  0.0000E+00      0.00
   80.00     24.00      1.55  -999.99     1.55      0.0000     -0.00 LINEAR  4.0611E-03    146.70  0.0000E+00      0.00
   84.00     24.00      1.63  -999.99     1.63      0.0000     -0.00 LINEAR  4.1031E-03    144.89  0.0000E+00      0.00
   88.00     24.00      1.68  -999.99     1.68      0.0000     -0.00 LINEAR  4.1240E-03    143.25  0.0000E+00      0.00
   92.00     24.00      1.68  -999.99     1.68      0.0000     -0.00 LINEAR  4.1237E-03    141.79  0.0000E+00      0.00
   96.00     24.00      1.63  -999.99     1.63      0.0000     -0.00 LINEAR  4.1022E-03    140.51  0.0000E+00      0.00
  100.00     24.00      1.54  -999.99     1.54      0.0000     -0.00 LINEAR  4.0597E-03    139.42  0.0000E+00      0.00
  104.00     24.00      1.41  -999.99     1.41      0.0000     -0.00 LINEAR  3.9965E-03    138.52  0.0000E+00      0.00
  108.00     24.00      1.22  -999.99     1.22      0.0000     -0.00 LINEAR  3.9130E-03    137.83  0.0000E+00      0.00
  112.00     24.00      0.99  -999.99     0.99      0.0000     -0.00 LINEAR  3.8098E-03    137.34  0.0000E+00      0.00
  116.00     24.00      0.71  -999.99     0.71      0.0000     -0.00 LINEAR  3.6877E-03    137.06  0.0000E+00      0.00
  120.00     24.00      0.37  -999.99     0.37      0.0000     -0.00 LINEAR  3.5473E-03    136.98  0.0000E+00      0.00
  124.00     24.00     -0.02  -999.99    -0.02      0.0000     -0.00 LINEAR  3.3897E-03    137.12  0.0000E+00      0.00
  128.00     24.00     -0.48  -999.99    -0.48      0.0000     -0.00 LINEAR  3.2159E-03    137.46  0.0000E+00      0.00
  132.00     24.00     -1.01  -999.99    -1.01      0.0000     -0.00 LINEAR  3.0269E-03    138.00  0.0000E+00      0.00
  136.00     24.00     -1.61  -999.99    -1.61      0.0000     -0.00 LINEAR  2.8238E-03    138.76  0.0000E+00      0.00
  140.00     24.00     -2.30  -999.99    -2.30      0.0000     -0.00 LINEAR  2.6078E-03    139.70  0.0000E+00      0.00
  144.00     24.00     -3.10  -999.99    -3.10      0.0000     -0.00 LINEAR  2.3801E-03    140.85  0.0000E+00      0.00
  148.00     24.00     -4.01  -999.99    -4.01      0.0000     -0.00 LINEAR  2.1418E-03    142.18  0.0000E+00      0.00
  152.00     24.00     -5.08  -999.99    -5.08      0.0000     -0.00 LINEAR  1.8943E-03    143.70  0.0000E+00      0.00
  156.00     24.00     -6.34  -999.99    -6.34      0.0000     -0.00 LINEAR  1.6386E-03    145.39  0.0000E+00      0.00
  160.00     24.00     -7.86  -999.99    -7.86      0.0000     -0.00 LINEAR  1.3760E-03    147.25  0.0000E+00      0.00
  164.00     24.00     -9.74  -999.99    -9.74      0.0000     -0.00 LINEAR  1.1076E-03    149.26  0.0000E+00      0.00
  168.00     24.00    -12.20  -999.99   -12.20      0.0000     -0.00 LINEAR  8.3470E-04    151.42  0.0000E+00      0.00
  172.00     24.00    -15.69  -999.99   -15.69      0.0000     -0.00 LINEAR  5.5836E-04    153.72  0.0000E+00      0.00
  176.00     24.00    -21.69  -999.99   -21.69      0.0000     -0.00 LINEAR  2.7975E-04    156.14  0.0000E+00      0.00
  180.00     24.00   -999.99  -999.99  -999.99      0.0000      0.00         4.0927E-14    -21.32  0.0000E+00      0.00
    0.00     28.00   -999.99  -999.99  -999.99      0.0000      0.00         0.0000E+00      0.00  0.0000E+00      0.00
    4.00     28.00    -21.68  -999.99   -21.68      0.0000     -0.00 LINEAR  2.8029E-04   -161.65  0.0000E+00      0.00
    8.00     28.00    -15.67  -999.99   -15.67      0.0000     -0.00 LINEAR  5.5944E-04   -163.90  0.0000E+00      0.00
   12.00     28.00    -12.18  -999.99   -12.18      0.0000     -0.00 LINEAR  8.3629E-04   -166.23  0.0000E+00      0.00
   16.00     28.00     -9.72  -999.99    -9.72      0.0000     -0.00 LINEAR  1.1097E-03   -168.63  0.0000E+00      0.00
   20.00     28.00     -7.84  -999.99    -7.84      0.0000     -0.00 LINEAR  1.3785E-03   -171.09  0.0000E+00      0.00
   24.00     28.00     -6.32  -999.99    -6.32      0.0000     -0.00 LINEAR  1.6415E-03   -173.59  0.0000E+00      0.00
   28.00     28.00     -5.06  -999.99    -5.06      0.0000     -0.00 LINEAR  1.8975E-03   -176.13  0.0000E+00      0.00
   32.00     28.00     -4.00  -999.99    -4.00      0.0000     -0.00 LINEAR  2.1453E-03   -178.69  0.0000E+00      0.00
   36.00     28.00     -3.08  -999.99    -3.08      0.0000     -0.00 LINEAR  2.3838E-03    178.75  0.0000E+00      0.00
   40.00     28.00     -2.29  -999.99    -2.29      0.0000     -0.00 LINEAR  2.6117E-03    176.19  0.0000E+00      0.00
   44.00     28.00     -1.60  -999.99    -1.60      0.0000     -0.00 LINEAR  2.8277E-03    173.64  0.0000E+00      0.00
   48.00     28.00     -1.00  -999.99    -1.00      0.0000     -0.00 LINEAR  3.0308E-03    171.13  0.0000E+00      0.00
   52.00     28.00     -0.47  -999.99    -0.47      0.0000     -0.00 LINEAR  3.2197E-03    168.65  0.0000E+00      0.00
   56.00     28.00     -0.01  -999.99    -0.01      0.0000     -0.00 LINEAR  3.3934E-03    166.23  0.0000E+00      0.00
   60.00     28.00      0.38  -999.99     0.38      0.0000     -0.00 LINEAR  3.5507E-03    163.87  0.0000E+00      0.00
   64.00     28.00      0.71  -999.99     0.71      0.0000     -0.00 LINEAR  3.6908E-03    161.59  0.0000E+00      0.00
   68.00     28.00      1.00  -999.99     1.00      0.0000     -0.00 LINEAR  3.8126E-03    159.39  0.0000E+00      0.00
   72.00     28.00      1.23  -999.99     1.23      0.0000     -0.00 LINEAR  3.9154E-03    157.29  0.0000E+00      0.00
   76.00     28.00      1.41  -999.99     1.41      0.0000     -0.00 LINEAR  3.9984E-03    155.30  0.0000E+00      0.00
   80.00     28.00      1.55  -999.99     1.55      0.0000     -0.00 LINEAR  4.0611E-03    153.43  0.0000E+00      0.00
   84.00     28.00      1.63  -999.99     1.63      0.0000     -0.00 LINEAR  4.1031E-03    151.69  0.0000E+00      0.00
   88.00     28.00      1.68  -999.99     1.68      0.0000     -0.00 LINEAR  4.1240E-03    150.08  0.0000E+00      0.00
   92.00     28.00      1.68  -999.99     1.68      0.0000     -0.00 LINEAR  4.1237E-03    148.61  0.0000E+00      0.00
   96.00     28.00      1.63  -999.99     1.63      0.0000     -0.00 LINEAR  4.1022E-03    147.30  0.0000E+00      0.00
  100.00     28.00      1.54  -999.99     1.54      0.0000     -0.00 LINEAR  4.0597E-03    146.14  0.0000E+00      0.00
  104.00     28.00      1.41  -999.99     1.41      0.0000     -0.00 LINEAR  3.9965E-03    145.15  0.0000E+00      0.00
  108.00     28.00      1.22  -999.99     1.22      0.0000     -0.00 LINEAR  3.9130E-03    144.33  0.0000E+00      0.00
  112.00     28.00      0.99  -999.99     0.99      0.0000     -0.00 LINEAR  3.8098E-03    143.67  0.0000E+00      0.00
  116.00     28.00      0.71  -999.99     0.71      0.0000     -0.00 LINEAR  3.6877E-03    143.20  0.0000E+00      0.00
  120.00     28.00      0.37  -999.99     0.37      0.0000     -0.00 LINEAR  3.5473E-03    142.90  0.0000E+00      0.00
  124.00     28.00     -0.02  -999.99    -0.02      0.0000     -0.00 LINEAR  3.3897E-03    142.78  0.0000E+00      0.00
  128.00     28.00     -0.48  -999.99    -0.48      0.0000     -0.00 LINEAR  3.2159E-03    142.84  0.0000E+00      0.00
  132.00     28.00     -1.01  -999.99    -1.01      0.0000     -0.00 LINEAR  3.0269E-03    143.08  0.0000E+00      0.00
  136.00     28.00     -1.61  -999.99    -1.61      0.0000     -0.00 LINEAR  2.8238E-03    143.50  0.0000E+00      0.00
  140.00     28.00     -2.30  -999.99    -2.30      0.0000     -0.00 LINEAR  2.6078E-03    144.10  0.0000E+00      0.00
  144.00     28.00     -3.10  -999.99    -3.10      0.0000     -0.00 LINEAR  2.3801E-03    144.86  0.0000E+00      0.00
  148.00     28.00     -4.01  -999.99    -4.01      0.0000     -0.00 LINEAR  2.1418E-03    145.80  0.0000E+00      0.00
  152.00     28.00     -5.08  -999.99    -5.08      0.0000     -0.00 LINEAR  1.8943E-03    146.91  0.0000E+00      0.00
  156.00     28.00     -6.34  -999.99    -6.34      0.0000     -0.00 LINEAR  1.6386E-03    148.17  0.0000E+00      0.00
  160.00     28.00     -7.86  -999.99    -7.86      0.0000     -0.00 LINEAR  1.3760E-03    149.58  0.0000E+00      0.00
  164.00     28.00     -9.74  -999.99    -9.74      0.0000     -0.00 LINEAR  1.1076E-03    151.14  0.0000E+00      0.00
  168.00     28.00    -12.20  -999.99   -12.20      0.0000     -0.00 LINEAR  8.3470E-04    152.84  0.0000E+00      0.00
  172.00     28.00    -15.69  -999.99   -15.69      0.0000     -0.00 LINEAR  5.5836E-04    154.67  0.0000E+00      0.00
  176.00     28.00    -21.69  -999.99   -21.69      0.0000     -0.00 LINEAR  2.7975E-04    156.62  0.0000E+00      0.00
  180.00     28.00   -999.99  -999.99  -999.99      0.0000      0.00         4.0927E-14    -21.32  0.0000E+00      0.00
    0.00     32.00   -999.99  -999.99  -999.99      0.0000      0.00         0.0000E+00      0.00  0.0000E+00      0.00
    4.00     32.00    -21.68  -999.99   -21.68      0.0000     -0.00 LINEAR  2.8029E-04   -161.16  0.0000E+00      0.00
    8.00     32.00    -15.67  -999.99   -15.67      0.0000     -0.00 LINEAR  5.5944E-04   -162.93  0.0000E+00      0.00
   12.00     32.00    -12.18  -999.99   -12.18      0.0000     -0.00 LINEAR  8.3629E-04   -164.78  0.0000E+00      0.00
   16.00     32.00     -9.72  -999.99    -9.72      0.0000     -0.00 LINEAR  1.1097E-03   -166.71  0.0000E+00      0.00
   20.00     32.00     -7.84  -999.99    -7.84      0.0000     -0.00 LINEAR  1.3785E-03   -168.70  0.0000E+00      0.00
   24.00     32.00     -6.32  -999.99    -6.32      0.0000     -0.00 LINEAR  1.6415E-03   -170.75  0.0000E+00      0.00
   28.00     32.00     -5.06  -999.99    -5.06      0.0000     -0.00 LINEAR  1.8975E-03   -172.85  0.0000E+00      0.00
   32.00     32.00     -4.00  -999.99    -4.00      0.0000     -0.00 LINEAR  2.1453E-03   -174.99  0.0000E+00      0.00
   36.00     32.00     -3.08  -999.99    -3.08      0.0000     -0.00 LINEAR  2.3838E-03   -177.15  0.0000E+00      0.00
   40.00     32.00     -2.29  -999.99    -2.29      0.0000     -0.00 LINEAR  2.6117E-03   -179.33  0.0000E+00      0.00
   44.00     32.00     -1.60  -999.99    -1.60      0.0000     -0.00 LINEAR  2.8277E-03    178.49  0.0000E+00      0.00
   48.00     32.00     -1.00  -999.99    -1.00      0.0000     -0.00 LINEAR  3.0308E-03    176.31  0.0000E+00      0.00
   52.00     32.00     -0.47  -999.99    -0.47      0.0000     -0.00 LINEAR  3.2197E-03    174.15  0.0000E+00      0.00
   56.00     32.00     -0.01  -999.99    -0.01      0.0000     -0.00 LINEAR  3.3934E-03    172.01  0.0000E+00      0.00
   60.00     32.00      0.38  -999.99     0.38      0.0000     -0.00 LINEAR  3.5507E-03    169.91  0.0000E+00      0.00
   64.00     32.00      0.71  -999.99     0.71      0.0000     -0.00 LINEAR  3.6908E-03    167.86  0.0000E+00      0.00
   68.00     32.00      1.00  -999.99     1.00      0.0000     -0.00 LINEAR  3.8126E-03    165.86  0.0000E+00      0.00
   72.00     32.00      1.23  -999.99     1.23      0.0000     -0.00 LINEAR  3.9154E-03    163.93  0.0000E+00      0.00
   76.00     32.00      1.41  -999.99     1.41      0.0000     -0.00 LINEAR  3.9984E-03    162.07  0.0000E+00      0.00
   80.00     32.00      1.55  -999.99     1.55      0.0000     -0.00 LINEAR  4.0611E-03    160.30  0.0000E+00      0.00
   84.00     32.00      1.63  -999.99     1.63      0.0000     -0.00 LINEAR  4.1031E-03    158.63  0.0000E+00      0.00
   88.00     32.00      1.68  -999.99     1.68      0.0000     -0.00 LINEAR  4.1240E-03    157.05  0.0000E+00      0.00
   92.00     32.00      1.68  -999.99     1.68      0.0000     -0.00 LINEAR  4.1237E-03    155.59  0.0000E+00      0.00
   96.00     32.00      1.63  -999.99     1.63      0.0000     -0.00 LINEAR  4.1022E-03    154.24  0.0000E+00      0.00
  100.00     32.00      1.54  -999.99     1.54      0.0000     -0.00 LINEAR  4.0597E-03    153.02  0.0000E+00      0.00
  104.00     32.00      1.41  -999.99     1.41      0.0000     -0.00 LINEAR  3.9965E-03    151.92  0.0000E+00      0.00
  108.00     32.00      1.22  -999.99     1.22      0.0000     -0.00 LINEAR  3.9130E-03    150.96  0.0000E+00      0.00
  112.00     32.00      0.99  -999.99     0.99      0.0000     -0.00 LINEAR  3.8098E-03    150.15  0.0000E+00      0.00
  116.00     32.00      0.71  -999.99     0.71      0.0000     -0.00 LINEAR  3.6877E-03    149.47  0.0000E+00      0.00
  120.00     32.00      0.37  -999.99     0.37      0.0000     -0.00 LINEAR  3.5473E-03    148.94  0.0000E+00      0.00
  124.00     32.00     -0.02  -999.99    -0.02      0.0000     -0.00 LINEAR  3.3897E-03    148.57  0.0000E+00      0.00
  128.00     32.00     -0.48  -999.99    -0.48      0.0000     -0.00 LINEAR  3.2159E-03    148.34  0.0000E+00      0.00
  132.00     32.00     -1.01  -999.99    -1.01      0.0000     -0.00 LINEAR  3.0269E-03    148.27  0.0000E+00      0.00
  136.00     32.00     -1.61  -999.99    -1.61      0.0000     -0.00 LINEAR  2.8238E-03    148.35  0.0000E+00      0.00
  140.00     32.00     -2.30  -999.99    -2.30      0.0000     -0.00 LINEAR  2.6078E-03    148.58  0.0000E+00      0.00
  144.00     32.00     -3.10  -999.99    -3.10      0.0000     -0.00 LINEAR  2.3801E-03    148.97  0.0000E+00      0.00
  148.00     32.00     -4.01  -999.99    -4.01      0.0000     -0.00 LINEAR  2.1418E-03    149.50  0.0000E+00      0.00
  152.00     32.00     -5.08  -999.99    -5.08      0.0000     -0.00 LINEAR  1.8943E-03    150.18  0.0000E+00      0.00
  156.00     32.00     -6.34  -999.99    -6.34      0.0000     -0.00 LINEAR  1.6386E-03    151.01  0.0000E+00      0.00
  160.00     32.00     -7.86  -999.99    -7.86      0.0000     -0.00 LINEAR  1.3760E-03    151.97  0.0000E+00      0.00
  164.00     32.00     -9.74  -999.99    -9.74      0.0000     -0.00 LINEAR  1.1076E-03    153.07  0.0000E+00      0.00
  168.00     32.00    -12.20  -999.99   -12.20      0.0000     -0.00 LINEAR  8.3470E-04    154.29  0.0000E+00      0.00
  172.00     32.00    -15.69  -999.99   -15.69      0.0000     -0.00 LINEAR  5.5836E-04    155.64  0.0000E+00      0.00
  176.00     32.00    -21.69  -999.99   -21.69      0.0000     -0.00 LINEAR  2.7975E-04    157.11  0.0000E+00      0.00
  180.00     32.00   -999.99  -999.99  -999.99      0.0000      0.00         4.0927E-14    -21.32  0.0000E+00      0.00
    0.00     36.00   -999.99  -999.99  -999.99      0.0000      0.00         0.0000E+00      0.00  0.0000E+00      0.00
    4.00     36.00    -21.68  -999.99   -21.68      0.0000     -0.00 LINEAR  2.8029E-04   -160.66  0.0000E+00      0.00
    8.00     36.00    -15.67  -999.99   -15.67      0.0000     -0.00 LINEAR  5.5944E-04   -161.94  0.0000E+00      0.00
   12.00     36.00    -12.18  -999.99   -12.18      0.0000     -0.00 LINEAR  8.3629E-04   -163.31  0.0000E+00      0.00
   16.00     36.00     -9.72  -999.99    -9.72      0.0000     -0.00 LINEAR  1.1097E-03   -164.75  0.0000E+00      0.00
   20.00     36.00     -7.84  -999.99    -7.84      0.0000     -0.00 LINEAR  1.3785E-03   -166.28  0.0000E+00      0.00
   24.00     36.00     -6.32  -999.99    -6.32      0.0000     -0.00 LINEAR  1.6415E-03   -167.87  0.0000E+00      0.00
   28.00     36.00     -5.06  -999.99    -5.06      0.0000     -0.00 LINEAR  1.8975E-03   -169.52  0.0000E+00      0.00
   32.00     36.00     -4.00  -999.99    -4.00      0.0000     -0.00 LINEAR  2.1453E-03   -171.23  0.0000E+00      0.00
   36.00     36.00     -3.08  -999.99    -3.08      0.0000     -0.00 LINEAR  2.3838E-03   -172.98  0.0000E+00      0.00
   40.00     36.00     -2.29  -999.99    -2.29      0.0000     -0.00 LINEAR  2.6117E-03   -174.77  0.0000E+00      0.00
   44.00     36.00     -1.60  -999.99    -1.60      0.0000     -0.00 LINEAR  2.8277E-03   -176.58  0.0000E+00      0.00
   48.00     36.00     -1.00  -999.99    -1.00      0.0000     -0.00 LINEAR  3.0308E-03   -178.42  0.0000E+00      0.00
   52.00     36.00     -0.47  -999.99    -0.47      0.0000     -0.00 LINEAR  3.2197E-03    179.74  0.0000E+00      0.00
   56.00     36.00     -0.01  -999.99    -0.01      0.0000     -0.00 LINEAR  3.3934E-03    177.89  0.0000E+00      0.00
   60.00     36.00      0.38  -999.99     0.38      0.0000     -0.00 LINEAR  3.5507E-03    176.05  0.0000E+00      0.00
   64.00     36.00      0.71  -999.99     0.71      0.0000     -0.00 LINEAR  3.6908E-03    174.23  0.0000E+00      0.00
   68.00     36.00      1.00  -999.99     1.00      0.0000     -0.00 LINEAR  3.8126E-03    172.44  0.0000E+00      0.00
   72.00     36.00      1.23  -999.99     1.23      0.0000     -0.00 LINEAR  3.9154E-03    170.68  0.0000E+00      0.00
   76.00     36.00      1.41  -999.99     1.41      0.0000     -0.00 LINEAR  3.9984E-03    168.96  0.0000E+00      0.00
   80.00     36.00      1.55  -999.99     1.55      0.0000     -0.00 LINEAR  4.0611E-03    167.29  0.0000E+00      0.00
   84.00     36.00      1.63  -999.99     1.63      0.0000     -0.00 LINEAR  4.1031E-03    165.68  0.0000E+00      0.00
   88.00     36.00      1.68  -999.99     1.68      0.0000     -0.00 LINEAR  4.1240E-03    164.14  0.0000E+00      0.00
   92.00     36.00      1.68  -999.99     1.68      0.0000     -0.00 LINEAR  4.1237E-03    162.68  0.0000E+00      0.00
   96.00     36.00      1.63  -999.99     1.63      0.0000     -0.00 LINEAR  4.1022E-03    161.30  0.0000E+00      0.00
  100.00     36.00      1.54  -999.99     1.54      0.0000     -0.00 LINEAR  4.0597E-03    160.00  0.0000E+00      0.00
  104.00     36.00      1.41  -999.99     1.41      0.0000     -0.00 LINEAR  3.9965E-03    158.81  0.0000E+00      0.00
  108.00     36.00      1.22  -999.99     1.22      0.0000     -0.00 LINEAR  3.9130E-03    157.71  0.0000E+00      0.00
  112.00     36.00      0.99  -999.99     0.99      0.0000     -0.00 LINEAR  3.8098E-03    156.72  0.0000E+00      0.00
  116.00     36.00      0.71  -999.99     0.71      0.0000     -0.00 LINEAR  3.6877E-03    155.85  0.0000E+00      0.00
  120.00     36.00      0.37  -999.99     0.37      0.0000     -0.00 LINEAR  3.5473E-03    155.09  0.0000E+00      0.00
  124.00     36.00     -0.02  -999.99    -0.02      0.0000     -0.00 LINEAR  3.3897E-03    154.45  0.0000E+00      0.00
  128.00     36.00     -0.48  -999.99    -0.48      0.0000     -0.00 LINEAR  3.2159E-03    153.93  0.0000E+00      0.00
  132.00     36.00     -1.01  -999.99    -1.01      0.0000     -0.00 LINEAR  3.0269E-03    153.54  0.0000E+00      0.00
  136.00     36.00     -1.61  -999.99    -1.61      0.0000     -0.00 LINEAR  2.8238E-03    153.28  0.0000E+00      0.00
  140.00     36.00     -2.30  -999.99    -2.30      0.0000     -0.00 LINEAR  2.6078E-03    153.14  0.0000E+00      0.00
  144.00     36.00     -3.10  -999.99    -3.10      0.0000     -0.00 LINEAR  2.3801E-03    153.14  0.0000E+00      0.00
  148.00     36.00     -4.01  -999.99    -4.01      0.0000     -0.00 LINEAR  2.1418E-03    153.26  0.0000E+00      0.00
  152.00     36.00     -5.08  -999.99    -5.08      0.0000     -0.00 LINEAR  1.8943E-03    153.51  0.0000E+00      0.00
  156.00     36.00     -6.34  -999.99    -6.34      0.0000     -0.00 LINEAR  1.6386E-03    153.89  0.0000E+00      0.00
  160.00     36.00     -7.86  -999.99    -7.86      0.0000     -0.00 LINEAR  1.3760E-03    154.40  0.0000E+00      0.00
  164.00     36.00     -9.74  -999.99    -9.74      0.0000     -0.00 LINEAR  1.1076E-03    155.02  0.0000E+00      0.00
  168.00     36.00    -12.20  -999.99   -12.20      0.0000     -0.00 LINEAR  8.3470E-04    155.77  0.0000E+00      0.00
  172.00     36.00    -15.69  -999.99   -15.69      0.0000     -0.00 LINEAR  5.5836E-04    156.63  0.0000E+00      0.00
  176.00     36.00    -21.69  -999.99   -21.69      0.0000     -0.00 LINEAR  2.7975E-04    157.60  0.0000E+00      0.00
  180.00     36.00   -999.99  -999.99  -999.99      0.0000      0.00         4.0927E-14    -21.32  0.0000E+00      0.00
    0.00     40.00   -999.99  -999.99  -999.99      0.0000      0.00         0.0000E+00      0.00  0.0000E+00      0.00
    4.00     40.00    -21.68  -999.99   -21.68      0.0000     -0.00 LINEAR  2.8029E-04   -160.16  0.0000E+00      0.00
    8.00     40.00    -15.67  -999.99   -15.67      0.0000     -0.00 LINEAR  5.5944E-04   -160.94  0.0000E+00      0.00
   12.00     40.00    -12.18  -999.99   -12.18      0.0000     -0.00 LINEAR  8.3629E-04   -161.81  0.0000E+00      0.00
   16.00     40.00     -9.72  -999.99    -9.72      0.0000     -0.00 LINEAR  1.1097E-03   -162.78  0.0000E+00      0.00
   20.00     40.00     -7.84  -999.99    -7.84      0.0000     -0.00 LINEAR  1.3785E-03   -163.82  0.0000E+00      0.00
   24.00     40.00     -6.32  -999.99    -6.32      0.0000     -0.00 LINEAR  1.6415E-03   -164.95  0.0000E+00      0.00
   28.00     40.00     -5.06  -999.99    -5.06      0.0000     -0.00 LINEAR  1.8975E-03   -166.16  0.0000E+00      0.00
   32.00     40.00     -4.00  -999.99    -4.00      0.0000     -0.00 LINEAR  2.1453E-03   -167.43  0.0000E+00      0.00
   36.00     40.00     -3.08  -999.99    -3.08      0.0000     -0.00 LINEAR  2.3838E-03   -168.76  0.0000E+00      0.00
   40.00     40.00     -2.29  -999.99    -2.29      0.0000     -0.00 LINEAR  2.6117E-03   -170.16  0.0000E+00      0.00
   44.00     40.00     -1.60  -999.99    -1.60      0.0000     -0.00 LINEAR  2.8277E-03   -171.60  0.0000E+00      0.00
   48.00     40.00     -1.00  -999.99    -1.00      0.0000     -0.00 LINEAR  3.0308E-03   -173.09  0.0000E+00      0.00
   52.00     40.00     -0.47  -999.99    -0.47      0.0000     -0.00 LINEAR  3.2197E-03   -174.61  0.0000E+00      0.00
   56.00     40.00     -0.01  -999.99    -0.01      0.0000     -0.00 LINEAR  3.3934E-03   -176.16  0.0000E+00      0.00
   60.00     40.00      0.38  -999.99     0.38      0.0000     -0.00 LINEAR  3.5507E-03   -177.73  0.0000E+00      0.00
   64.00     40.00      0.71  -999.99     0.71      0.0000     -0.00 LINEAR  3.6908E-03   -179.32  0.0000E+00      0.00
   68.00     40.00      1.00  -999.99     1.00      0.0000     -0.00 LINEAR  3.8126E-03    179.09  0.0000E+00      0.00
   72.00     40.00      1.23  -999.99     1.23      0.0000     -0.00 LINEAR  3.9154E-03    177.50  0.0000E+00      0.00
   76.00     40.00      1.41  -999.99     1.41      0.0000     -0.00 LINEAR  3.9984E-03    175.92  0.0000E+00      0.00
   80.00     40.00      1.55  -999.99     1.55      0.0000     -0.00 LINEAR  4.0611E-03    174.35  0.0000E+00      0.00
   84.00     40.00      1.63  -999.99     1.63      0.0000     -0.00 LINEAR  4.1031E-03    172.82  0.0000E+00      0.00
   88.00     40.00      1.68  -999.99     1.68      0.0000     -0.00 LINEAR  4.1240E-03    171.31  0.0000E+00      0.00
   92.00     40.00      1.68  -999.99     1.68      0.0000     -0.00 LINEAR  4.1237E-03    169.85  0.0000E+00      0.00
   96.00     40.00      1.63  -999.99     1.63      0.0000     -0.00 LINEAR  4.1022E-03    168.43  0.0000E+00      0.00
  100.00     40.00      1.54  -999.99     1.54      0.0000     -0.00 LINEAR  4.0597E-03    167.07  0.0000E+00      0.00
  104.00     40.00      1.41  -999.99     1.41      0.0000     -0.00 LINEAR  3.9965E-03    165.76  0.0000E+00      0.00
  108.00     40.00      1.22  -999.99     1.22      0.0000     -0.00 LINEAR  3.9130E-03    164.53  0.0000E+00      0.00
  112.00     40.00      0.99  -999.99     0.99      0.0000     -0.00 LINEAR  3.8098E-03    163.37  0.0000E+00      0.00
  116.00     40.00      0.71  -999.99     0.71      0.0000     -0.00 LINEAR  3.6877E-03    162.29  0.0000E+00      0.00
  120.00     40.00      0.37  -999.99     0.37      0.0000     -0.00 LINEAR  3.5473E-03    161.30  0.0000E+00      0.00
  124.00     40.00     -0.02  -999.99    -0.02      0.0000     -0.00 LINEAR  3.3897E-03    160.39  0.0000E+00      0.00
  128.00     40.00     -0.48  -999.99    -0.48      0.0000     -0.00 LINEAR  3.2159E-03    159.58  0.0000E+00      0.00
  132.00     40.00     -1.01  -999.99    -1.01      0.0000     -0.00 LINEAR  3.0269E-03    158.87  0.0000E+00      0.00
  136.00     40.00     -1.61  -999.99    -1.61      0.0000     -0.00 LINEAR  2.8238E-03    158.26  0.0000E+00      0.00
  140.00     40.00     -2.30  -999.99    -2.30      0.0000     -0.00 LINEAR  2.6078E-03    157.75  0.0000E+00      0.00
  144.00     40.00     -3.10  -999.99    -3.10      0.0000     -0.00 LINEAR  2.3801E-03    157.35  0.0000E+00      0.00
  148.00     40.00     -4.01  -999.99    -4.01      0.0000     -0.00 LINEAR  2.1418E-03    157.06  0.0000E+00      0.00
  152.00     40.00     -5.08  -999.99    -5.08      0.0000     -0.00 LINEAR  1.8943E-03    156.88  0.0000E+00      0.00
  156.00     40.00     -6.34  -999.99    -6.34      0.0000     -0.00 LINEAR  1.6386E-03    156.81  0.0000E+00      0.00
  160.00     40.00     -7.86  -999.99    -7.86      0.0000     -0.00 LINEAR  1.3760E-03    156.85  0.0000E+00      0.00
  164.00     40.00     -9.74  -999.99    -9.74      0.0000     -0.00 LINEAR  1.1076E-03    157.00  0.0000E+00      0.00
  168.00     40.00    -12.20  -999.99   -12.20      0.0000     -0.00 LINEAR  8.3470E-04    157.26  0.0000E+00      0.00
  172.00     40.00    -15.69  -999.99   -15.69      0.0000     -0.00 LINEAR  5.5836E-04    157.63  0.0000E+00      0.00
  176.00     40.00    -21.69  -999.99   -21.69      0.0000     -0.00 LINEAR  2.7975E-04    158.10  0.0000E+00      0.00
  180.00     40.00   -999.99  -999.99  -999.99      0.0000      0.00         4.0927E-14    -21.32  0.0000E+00      0.00
    0.00     44.00   -999.99  -999.99  -999.99      0.0000      0.00         0.0000E+00      0.00  0.0000E+00      0.00
    4.00     44.00    -21.68  -999.99   -21.68      0.0000     -0.00 LINEAR  2.8029E-04   -159.66  0.0000E+00      0.00
    8.00     44.00    -15.67  -999.99   -15.67      0.0000     -0.00 LINEAR  5.5944E-04   -159.94  0.0000E+00      0.00
   12.00     44.00    -12.18  -999.99   -12.18      0.0000     -0.00 LINEAR  8.3629E-04   -160.31  0.0000E+00      0.00
   16.00     44.00     -9.72  -999.99    -9.72      0.0000     -0.00 LINEAR  1.1097E-03   -160.79  0.0000E+00      0.00
   20.00     44.00     -7.84  -999.99    -7.84      0.0000     -0.00 LINEAR  1.3785E-03   -161.36  0.0000E+00      0.00
   24.00     44.00     -6.32  -999.99    -6.32      0.0000     -0.00 LINEAR  1.6415E-03   -162.02  0.0000E+00      0.00
   28.00     44.00     -5.06  -999.99    -5.06      0.0000     -0.00 LINEAR  1.8975E-03   -162.77  0.0000E+00      0.00
   32.00     44.00     -4.00  -999.99    -4.00      0.0000     -0.00 LINEAR  2.1453E-03   -163.60  0.0000E+00      0.00
   36.00     44.00     -3.08  -999.99    -3.08      0.0000     -0.00 LINEAR  2.3838E-03   -164.52  0.0000E+00      0.00
   40.00     44.00     -2.29  -999.99    -2.29      0.0000     -0.00 LINEAR  2.6117E-03   -165.52  0.0000E+00      0.00
   44.00     44.00     -1.60  -999.99    -1.60      0.0000     -0.00 LINEAR  2.8277E-03   -166.59  0.0000E+00      0.00
   48.00     44.00     -1.00  -999.99    -1.00      0.0000     -0.00 LINEAR  3.0308E-03   -167.72  0.0000E+00      0.00
   52.00     44.00     -0.47  -999.99    -0.47      0.0000     -0.00 LINEAR  3.2197E-03   -168.92  0.0000E+00      0.00
   56.00     44.00     -0.01  -999.99    -0.01      0.0000     -0.00 LINEAR  3.3934E-03   -170.18  0.0000E+00      0.00
   60.00     44.00      0.38  -999.99     0.38      0.0000     -0.00 LINEAR  3.5507E-03   -171.48  0.0000E+00      0.00
   64.00     44.00      0.71  -999.99     0.71      0.0000     -0.00 LINEAR  3.6908E-03   -172.83  0.0000E+00      0.00
   68.00     44.00      1.00  -999.99     1.00      0.0000     -0.00 LINEAR  3.8126E-03   -174.22  0.0000E+00      0.00
   72.00     44.00      1.23  -999.99     1.23      0.0000     -0.00 LINEAR  3.9154E-03   -175.64  0.0000E+00      0.00
   76.00     44.00      1.41  -999.99     1.41      0.0000     -0.00 LINEAR  3.9984E-03   -177.08  0.0000E+00      0.00
   80.00     44.00      1.55  -999.99     1.55      0.0000     -0.00 LINEAR  4.0611E-03   -178.54  0.0000E+00      0.00
   84.00     44.00      1.63  -999.99     1.63      0.0000     -0.00 LINEAR  4.1031E-03    179.99  0.0000E+00      0.00
   88.00     44.00      1.68  -999.99     1.68      0.0000     -0.00 LINEAR  4.1240E-03    178.52  0.0000E+00      0.00
   92.00     44.00      1.68  -999.99     1.68      0.0000     -0.00 LINEAR  4.1237E-03    177.06  0.0000E+00      0.00
   96.00     44.00      1.63  -999.99     1.63      0.0000     -0.00 LINEAR  4.1022E-03    175.60  0.0000E+00      0.00
  100.00     44.00      1.54  -999.99     1.54      0.0000     -0.00 LINEAR  4.0597E-03    174.17  0.0000E+00      0.00
  104.00     44.00      1.41  -999.99     1.41      0.0000     -0.00 LINEAR  3.9965E-03    172.77  0.0000E+00      0.00
  108.00     44.00      1.22  -999.99     1.22      0.0000     -0.00 LINEAR  3.9130E-03    171.39  0.0000E+00      0.00
  112.00     44.00      0.99  -999.99     0.99      0.0000     -0.00 LINEAR  3.8098E-03    170.06  0.0000E+00      0.00
  116.00     44.00      0.71  -999.99     0.71      0.0000     -0.00 LINEAR  3.6877E-03    168.78  0.0000E+00      0.00
  120.00     44.00      0.37  -999.99     0.37      0.0000     -0.00 LINEAR  3.5473E-03    167.55  0.0000E+00      0.00
  124.00     44.00     -0.02  -999.99    -0.02      0.0000     -0.00 LINEAR  3.3897E-03    166.38  0.0000E+00      0.00
  128.00     44.00     -0.48  -999.99    -0.48      0.0000     -0.00 LINEAR  3.2159E-03    165.27  0.0000E+00      0.00
  132.00     44.00     -1.01  -999.99    -1.01      0.0000     -0.00 LINEAR  3.0269E-03    164.23  0.0000E+00      0.00
  136.00     44.00     -1.61  -999.99    -1.61      0.0000     -0.00 LINEAR  2.8238E-03    163.27  0.0000E+00      0.00
  140.00     44.00     -2.30  -999.99    -2.30      0.0000     -0.00 LINEAR  2.6078E-03    162.39  0.0000E+00      0.00
  144.00     44.00     -3.10  -999.99    -3.10      0.0000     -0.00 LINEAR  2.3801E-03    161.59  0.0000E+00      0.00
  148.00     44.00     -4.01  -999.99    -4.01      0.0000     -0.00 LINEAR  2.1418E-03    160.88  0.0000E+00      0.00
  152.00     44.00     -5.08  -999.99    -5.08      0.0000     -0.00 LINEAR  1.8943E-03    160.27  0.0000E+00      0.00
  156.00     44.00     -6.34  -999.99    -6.34      0.0000     -0.00 LINEAR  1.6386E-03    159.74  0.0000E+00      0.00
  160.00     44.00     -7.86  -999.99    -7.86      0.0000     -0.00 LINEAR  1.3760E-03    159.32  0.0000E+00      0.00
  164.00     44.00     -9.74  -999.99    -9.74      0.0000     -0.00 LINEAR  1.1076E-03    158.99  0.0000E+00      0.00
  168.00     44.00    -12.20  -999.99   -12.20      0.0000     -0.00 LINEAR  8.3470E-04    158.76  0.0000E+00      0.00
  172.00     44.00    -15.69  -999.99   -15.69      0.0000     -0.00 LINEAR  5.5836E-04    158.63  0.0000E+00      0.00
  176.00     44.00    -21.69  -999.99   -21.69      0.0000     -0.00 LINEAR  2.7975E-04    158.61  0.0000E+00      0.00
  180.00     44.00   -999.99  -999.99  -999.99      0.0000      0.00         4.0927E-14    -21.32  0.0000E+00      0.00
    0.00     48.00   -999.99  -999.99  -999.99      0.0000      0.00         0.0000E+00      0.00  0.0000E+00      0.00
    4.00     48.00    -21.68  -999.99   -21.68      0.0000     -0.00 LINEAR  2.8029E-04   -159.16  0.0000E+00      0.00
    8.00     48.00    -15.67  -999.99   -15.67      0.0000     -0.00 LINEAR  5.5944E-04   -158.93  0.0000E+00      0.00
   12.00     48.00    -12.18  -999.99   -12.18      0.0000     -0.00 LINEAR  8.3629E-04   -158.81  0.0000E+00      0.00
   16.00     48.00     -9.72  -999.99    -9.72      0.0000     -0.00 LINEAR  1.1097E-03   -158.80  0.0000E+00      0.00
   20.00     48.00     -7.84  -999.99    -7.84      0.0000     -0.00 LINEAR  1.3785E-03   -158.89  0.0000E+00      0.00
   24.00     48.00     -6.32  -999.99    -6.32      0.0000     -0.00 LINEAR  1.6415E-03   -159.08  0.0000E+00      0.00
   28.00     48.00     -5.06  -999.99    -5.06      0.0000     -0.00 LINEAR  1.8975E-03   -159.38  0.0000E+00      0.00
   32.00     48.00     -4.00  -999.99    -4.00      0.0000     -0.00 LINEAR  2.1453E-03   -159.78  0.0000E+00      0.00
   36.00     48.00     -3.08  -999.99    -3.08      0.0000     -0.00 LINEAR  2.3838E-03   -160.28  0.0000E+00      0.00
   40.00     48.00     -2.29  -999.99    -2.29      0.0000     -0.00 LINEAR  2.6117E-03   -160.88  0.0000E+00      0.00
   44.00     48.00     -1.60  -999.99    -1.60      0.0000     -0.00 LINEAR  2.8277E-03   -161.57  0.0000E+00      0.00
   48.00     48.00     -1.00  -999.99    -1.00      0.0000     -0.00 LINEAR  3.0308E-03   -162.36  0.0000E+00      0.00
   52.00     48.00     -0.47  -999.99    -0.47      0.0000     -0.00 LINEAR  3.2197E-03   -163.23  0.0000E+00      0.00
   56.00     48.00     -0.01  -999.99    -0.01      0.0000     -0.00 LINEAR  3.3934E-03   -164.19  0.0000E+00      0.00
   60.00     48.00      0.38  -999.99     0.38      0.0000     -0.00 LINEAR  3.5507E-03   -165.23  0.0000E+00      0.00
   64.00     48.00      0.71  -999.99     0.71      0.0000     -0.00 LINEAR  3.6908E-03   -166.34  0.0000E+00      0.00
   68.00     48.00      1.00  -999.99     1.00      0.0000     -0.00 LINEAR  3.8126E-03   -167.52  0.0000E+00      0.00
   72.00     48.00      1.23  -999.99     1.23      0.0000     -0.00 LINEAR  3.9154E-03   -168.77  0.0000E+00      0.00
   76.00     48.00      1.41  -999.99     1.41      0.0000     -0.00 LINEAR  3.9984E-03   -170.07  0.0000E+00      0.00
   80.00     48.00      1.55  -999.99     1.55      0.0000     -0.00 LINEAR  4.0611E-03   -171.43  0.0000E+00      0.00
   84.00     48.00      1.63  -999.99     1.63      0.0000     -0.00 LINEAR  4.1031E-03   -172.82  0.0000E+00      0.00
   88.00     48.00      1.68  -999.99     1.68      0.0000     -0.00 LINEAR  4.1240E-03   -174.26  0.0000E+00      0.00
   92.00     48.00      1.68  -999.99     1.68      0.0000     -0.00 LINEAR  4.1237E-03   -175.72  0.0000E+00      0.00
   96.00     48.00      1.63  -999.99     1.63      0.0000     -0.00 LINEAR  4.1022E-03   -177.21  0.0000E+00      0.00
  100.00     48.00      1.54  -999.99     1.54      0.0000     -0.00 LINEAR  4.0597E-03   -178.71  0.0000E+00      0.00
  104.00     48.00      1.41  -999.99     1.41      0.0000     -0.00 LINEAR  3.9965E-03    179.78  0.0000E+00      0.00
  108.00     48.00      1.22  -999.99     1.22      0.0000     -0.00 LINEAR  3.9130E-03    178.27  0.0000E+00      0.00
  112.00     48.00      0.99  -999.99     0.99      0.0000     -0.00 LINEAR  3.8098E-03    176.76  0.0000E+00      0.00
  116.00     48.00      0.71  -999.99     0.71      0.0000     -0.00 LINEAR  3.6877E-03    175.27  0.0000E+00      0.00
  120.00     48.00      0.37  -999.99     0.37      0.0000     -0.00 LINEAR  3.5473E-03    173.80  0.0000E+00      0.00
  124.00     48.00     -0.02  -999.99    -0.02      0.0000     -0.00 LINEAR  3.3897E-03    172.36  0.0000E+00      0.00
  128.00     48.00     -0.48  -999.99    -0.48      0.0000     -0.00 LINEAR  3.2159E-03    170.96  0.0000E+00      0.00
  132.00     48.00     -1.01  -999.99    -1.01      0.0000     -0.00 LINEAR  3.0269E-03    169.60  0.0000E+00      0.00
  136.00     48.00     -1.61  -999.99    -1.61      0.0000     -0.00 LINEAR  2.8238E-03    168.29  0.0000E+00      0.00
  140.00     48.00     -2.30  -999.99    -2.30      0.0000     -0.00 LINEAR  2.6078E-03    167.03  0.0000E+00      0.00
  144.00     48.00     -3.10  -999.99    -3.10      0.0000     -0.00 LINEAR  2.3801E-03    165.84  0.0000E+00      0.00
  148.00     48.00     -4.01  -999.99    -4.01      0.0000     -0.00 LINEAR  2.1418E-03    164.71  0.0000E+00      0.00
  152.00     48.00     -5.08  -999.99    -5.08      0.0000     -0.00 LINEAR  1.8943E-03    163.66  0.0000E+00      0.00
  156.00     48.00     -6.34  -999.99    -6.34      0.0000     -0.00 LINEAR  1.6386E-03    162.68  0.0000E+00      0.00
  160.00     48.00     -7.86  -999.99    -7.86      0.0000     -0.00 LINEAR  1.3760E-03    161.79  0.0000E+00      0.00
  164.00     48.00     -9.74  -999.99    -9.74      0.0000     -0.00 LINEAR  1.1076E-03    160.98  0.0000E+00      0.00
  168.00     48.00    -12.20  -999.99   -12.20      0.0000     -0.00 LINEAR  8.3470E-04    160.26  0.0000E+00      0.00
  172.00     48.00    -15.69  -999.99   -15.69      0.0000     -0.00 LINEAR  5.5836E-04    159.64  0.0000E+00      0.00
  176.00     48.00    -21.69  -999.99   -21.69      0.0000     -0.00 LINEAR  2.7975E-04    159.11  0.0000E+00      0.00
  180.00     48.00   -999.99  -999.99  -999.99      0.0000      0.00         4.0927E-14    -21.32  0.0000E+00      0.00
    0.00     52.00   -999.99  -999.99  -999.99      0.0000      0.00         0.0000E+00      0.00  0.0000E+00      0.00
    4.00     52.00    -21.68  -999.99   -21.68      0.0000     -0.00 LINEAR  2.8029E-04   -158.65  0.0000E+00      0.00
    8.00     52.00    -15.67  -999.99   -15.67      0.0000     -0.00 LINEAR  5.5944E-04   -157.93  0.0000E+00      0.00
   12.00     52.00    -12.18  -999.99   -12.18      0.0000     -0.00 LINEAR  8.3629E-04   -157.32  0.0000E+00      0.00
   16.00     52.00     -9.72  -999.99    -9.72      0.0000     -0.00 LINEAR  1.1097E-03   -156.81  0.0000E+00      0.00
   20.00     52.00     -7.84  -999.99    -7.84      0.0000     -0.00 LINEAR  1.3785E-03   -156.42  0.0000E+00      0.00
   24.00     52.00     -6.32  -999.99    -6.32      0.0000     -0.00 LINEAR  1.6415E-03   -156.15  0.0000E+00      0.00
   28.00     52.00     -5.06  -999.99    -5.06      0.0000     -0.00 LINEAR  1.8975E-03   -156.00  0.0000E+00      0.00
   32.00     52.00     -4.00  -999.99    -4.00      0.0000     -0.00 LINEAR  2.1453E-03   -155.96  0.0000E+00      0.00
   36.00     52.00     -3.08  -999.99    -3.08      0.0000     -0.00 LINEAR  2.3838E-03   -156.05  0.0000E+00      0.00
   40.00     52.00     -2.29  -999.99    -2.29      0.0000     -0.00 LINEAR  2.6117E-03   -156.25  0.0000E+00      0.00
   44.00     52.00     -1.60  -999.99    -1.60      0.0000     -0.00 LINEAR  2.8277E-03   -156.57  0.0000E+00      0.00
   48.00     52.00     -1.00  -999.99    -1.00      0.0000     -0.00 LINEAR  3.0308E-03   -157.01  0.0000E+00      0.00
   52.00     52.00     -0.47  -999.99    -0.47      0.0000     -0.00 LINEAR  3.2197E-03   -157.56  0.0000E+00      0.00
   56.00     52.00     -0.01  -999.99    -0.01      0.0000     -0.00 LINEAR  3.3934E-03   -158.22  0.0000E+00      0.00
   60.00     52.00      0.38  -999.99     0.38      0.0000     -0.00 LINEAR  3.5507E-03   -158.99  0.0000E+00      0.00
   64.00     52.00      0.71  -999.99     0.71      0.0000     -0.00 LINEAR  3.6908E-03   -159.87  0.0000E+00      0.00
   68.00     52.00      1.00  -999.99     1.00      0.0000     -0.00 LINEAR  3.8126E-03   -160.85  0.0000E+00      0.00
   72.00     52.00      1.23  -999.99     1.23      0.0000     -0.00 LINEAR  3.9154E-03   -161.92  0.0000E+00      0.00
[...]
   76.00    344.00      1.41  -999.99     1.41      0.0000     -0.00 LINEAR  3.9984E-03     96.82  0.0000E+00      0.00
   80.00    344.00      1.55  -999.99     1.55      0.0000     -0.00 LINEAR  4.0611E-03     94.07  0.0000E+00      0.00
   84.00    344.00      1.63  -999.99     1.63      0.0000     -0.00 LINEAR  4.1031E-03     91.74  0.0000E+00      0.00
   88.00    344.00      1.68  -999.99     1.68      0.0000      0.00 LINEAR  4.1240E-03     89.84  0.0000E+00      0.00
   92.00    344.00      1.68  -999.99     1.68      0.0000      0.00 LINEAR  4.1237E-03     88.37  0.0000E+00      0.00
   96.00    344.00      1.63  -999.99     1.63      0.0000      0.00 LINEAR  4.1022E-03     87.35  0.0000E+00      0.00
  100.00    344.00      1.54  -999.99     1.54      0.0000      0.00 LINEAR  4.0597E-03     86.78  0.0000E+00      0.00
  104.00    344.00      1.41  -999.99     1.41      0.0000      0.00 LINEAR  3.9965E-03     86.67  0.0000E+00      0.00
  108.00    344.00      1.22  -999.99     1.22      0.0000      0.00 LINEAR  3.9130E-03     87.00  0.0000E+00      0.00
  112.00    344.00      0.99  -999.99     0.99      0.0000      0.00 LINEAR  3.8098E-03     87.79  0.0000E+00      0.00
  116.00    344.00      0.71  -999.99     0.71      0.0000      0.00 LINEAR  3.6877E-03     89.02  0.0000E+00      0.00
  120.00    344.00      0.37  -999.99     0.37      0.0000     -0.00 LINEAR  3.5473E-03     90.70  0.0000E+00      0.00
  124.00    344.00     -0.02  -999.99    -0.02      0.0000     -0.00 LINEAR  3.3897E-03     92.81  0.0000E+00      0.00
  128.00    344.00     -0.48  -999.99    -0.48      0.0000     -0.00 LINEAR  3.2159E-03     95.34  0.0000E+00      0.00
  132.00    344.00     -1.01  -999.99    -1.01      0.0000     -0.00 LINEAR  3.0269E-03     98.29  0.0000E+00      0.00
  136.00    344.00     -1.61  -999.99    -1.61      0.0000     -0.00 LINEAR  2.8238E-03    101.63  0.0000E+00      0.00
  140.00    344.00     -2.30  -999.99    -2.30      0.0000     -0.00 LINEAR  2.6078E-03    105.35  0.0000E+00      0.00
  144.00    344.00     -3.10  -999.99    -3.10      0.0000     -0.00 LINEAR  2.3801E-03    109.44  0.0000E+00      0.00
  148.00    344.00     -4.01  -999.99    -4.01      0.0000     -0.00 LINEAR  2.1418E-03    113.86  0.0000E+00      0.00
  152.00    344.00     -5.08  -999.99    -5.08      0.0000     -0.00 LINEAR  1.8943E-03    118.61  0.0000E+00      0.00
  156.00    344.00     -6.34  -999.99    -6.34      0.0000     -0.00 LINEAR  1.6386E-03    123.65  0.0000E+00      0.00
  160.00    344.00     -7.86  -999.99    -7.86      0.0000     -0.00 LINEAR  1.3760E-03    128.97  0.0000E+00      0.00
  164.00    344.00     -9.74  -999.99    -9.74      0.0000     -0.00 LINEAR  1.1076E-03    134.53  0.0000E+00      0.00
  168.00    344.00    -12.20  -999.99   -12.20      0.0000     -0.00 LINEAR  8.3470E-04    140.31  0.0000E+00      0.00
  172.00    344.00    -15.69  -999.99   -15.69      0.0000     -0.00 LINEAR  5.5836E-04    146.28  0.0000E+00      0.00
  176.00    344.00    -21.69  -999.99   -21.69      0.0000     -0.00 LINEAR  2.7975E-04    152.42  0.0000E+00      0.00
  180.00    344.00   -999.99  -999.99  -999.99      0.0000      0.00         4.0927E-14    -21.32  0.0000E+00      0.00
    0.00    348.00   -999.99  -999.99  -999.99      0.0000      0.00         0.0000E+00      0.00  0.0000E+00      0.00
    4.00    348.00    -21.68  -999.99   -21.68      0.0000     -0.00 LINEAR  2.8029E-04   -165.59  0.0000E+00      0.00
    8.00    348.00    -15.67  -999.99   -15.67      0.0000     -0.00 LINEAR  5.5944E-04   -171.77  0.0000E+00      0.00
   12.00    348.00    -12.18  -999.99   -12.18      0.0000     -0.00 LINEAR  8.3629E-04   -177.99  0.0000E+00      0.00
   16.00    348.00     -9.72  -999.99    -9.72      0.0000     -0.00 LINEAR  1.1097E-03    175.78  0.0000E+00      0.00
   20.00    348.00     -7.84  -999.99    -7.84      0.0000     -0.00 LINEAR  1.3785E-03    169.57  0.0000E+00      0.00
   24.00    348.00     -6.32  -999.99    -6.32      0.0000     -0.00 LINEAR  1.6415E-03    163.40  0.0000E+00      0.00
   28.00    348.00     -5.06  -999.99    -5.06      0.0000     -0.00 LINEAR  1.8975E-03    157.32  0.0000E+00      0.00
   32.00    348.00     -4.00  -999.99    -4.00      0.0000     -0.00 LINEAR  2.1453E-03    151.34  0.0000E+00      0.00
   36.00    348.00     -3.08  -999.99    -3.08      0.0000     -0.00 LINEAR  2.3838E-03    145.51  0.0000E+00      0.00
   40.00    348.00     -2.29  -999.99    -2.29      0.0000     -0.00 LINEAR  2.6117E-03    139.83  0.0000E+00      0.00
   44.00    348.00     -1.60  -999.99    -1.60      0.0000     -0.00 LINEAR  2.8277E-03    134.36  0.0000E+00      0.00
   48.00    348.00     -1.00  -999.99    -1.00      0.0000     -0.00 LINEAR  3.0308E-03    129.10  0.0000E+00      0.00
   52.00    348.00     -0.47  -999.99    -0.47      0.0000     -0.00 LINEAR  3.2197E-03    124.08  0.0000E+00      0.00
   56.00    348.00     -0.01  -999.99    -0.01      0.0000     -0.00 LINEAR  3.3934E-03    119.34  0.0000E+00      0.00
   60.00    348.00      0.38  -999.99     0.38      0.0000     -0.00 LINEAR  3.5507E-03    114.89  0.0000E+00      0.00
   64.00    348.00      0.71  -999.99     0.71      0.0000     -0.00 LINEAR  3.6908E-03    110.75  0.0000E+00      0.00
   68.00    348.00      1.00  -999.99     1.00      0.0000     -0.00 LINEAR  3.8126E-03    106.95  0.0000E+00      0.00
   72.00    348.00      1.23  -999.99     1.23      0.0000     -0.00 LINEAR  3.9154E-03    103.51  0.0000E+00      0.00
   76.00    348.00      1.41  -999.99     1.41      0.0000     -0.00 LINEAR  3.9984E-03    100.43  0.0000E+00      0.00
   80.00    348.00      1.55  -999.99     1.55      0.0000     -0.00 LINEAR  4.0611E-03     97.74  0.0000E+00      0.00
   84.00    348.00      1.63  -999.99     1.63      0.0000     -0.00 LINEAR  4.1031E-03     95.44  0.0000E+00      0.00
   88.00    348.00      1.68  -999.99     1.68      0.0000     -0.00 LINEAR  4.1240E-03     93.56  0.0000E+00      0.00
   92.00    348.00      1.68  -999.99     1.68      0.0000     -0.00 LINEAR  4.1237E-03     92.09  0.0000E+00      0.00
   96.00    348.00      1.63  -999.99     1.63      0.0000     -0.00 LINEAR  4.1022E-03     91.06  0.0000E+00      0.00
  100.00    348.00      1.54  -999.99     1.54      0.0000     -0.00 LINEAR  4.0597E-03     90.45  0.0000E+00      0.00
  104.00    348.00      1.41  -999.99     1.41      0.0000     -0.00 LINEAR  3.9965E-03     90.28  0.0000E+00      0.00
  108.00    348.00      1.22  -999.99     1.22      0.0000     -0.00 LINEAR  3.9130E-03     90.54  0.0000E+00      0.00
  112.00    348.00      0.99  -999.99     0.99      0.0000     -0.00 LINEAR  3.8098E-03     91.24  0.0000E+00      0.00
  116.00    348.00      0.71  -999.99     0.71      0.0000     -0.00 LINEAR  3.6877E-03     92.37  0.0000E+00      0.00
  120.00    348.00      0.37  -999.99     0.37      0.0000     -0.00 LINEAR  3.5473E-03     93.92  0.0000E+00      0.00
  124.00    348.00     -0.02  -999.99    -0.02      0.0000     -0.00 LINEAR  3.3897E-03     95.89  0.0000E+00      0.00
  128.00    348.00     -0.48  -999.99    -0.48      0.0000     -0.00 LINEAR  3.2159E-03     98.28  0.0000E+00      0.00
  132.00    348.00     -1.01  -999.99    -1.01      0.0000     -0.00 LINEAR  3.0269E-03    101.05  0.0000E+00      0.00
  136.00    348.00     -1.61  -999.99    -1.61      0.0000     -0.00 LINEAR  2.8238E-03    104.21  0.0000E+00      0.00
  140.00    348.00     -2.30  -999.99    -2.30      0.0000     -0.00 LINEAR  2.6078E-03    107.74  0.0000E+00      0.00
  144.00    348.00     -3.10  -999.99    -3.10      0.0000     -0.00 LINEAR  2.3801E-03    111.62  0.0000E+00      0.00
  148.00    348.00     -4.01  -999.99    -4.01      0.0000     -0.00 LINEAR  2.1418E-03    115.83  0.0000E+00      0.00
  152.00    348.00     -5.08  -999.99    -5.08      0.0000     -0.00 LINEAR  1.8943E-03    120.35  0.0000E+00      0.00
  156.00    348.00     -6.34  -999.99    -6.34      0.0000     -0.00 LINEAR  1.6386E-03    125.16  0.0000E+00      0.00
  160.00    348.00     -7.86  -999.99    -7.86      0.0000     -0.00 LINEAR  1.3760E-03    130.24  0.0000E+00      0.00
  164.00    348.00     -9.74  -999.99    -9.74      0.0000     -0.00 LINEAR  1.1076E-03    135.55  0.0000E+00      0.00
  168.00    348.00    -12.20  -999.99   -12.20      0.0000     -0.00 LINEAR  8.3470E-04    141.08  0.0000E+00      0.00
  172.00    348.00    -15.69  -999.99   -15.69      0.0000     -0.00 LINEAR  5.5836E-04    146.80  0.0000E+00      0.00
  176.00    348.00    -21.69  -999.99   -21.69      0.0000     -0.00 LINEAR  2.7975E-04    152.67  0.0000E+00      0.00
  180.00    348.00   -999.99  -999.99  -999.99      0.0000      0.00         4.0927E-14    -21.32  0.0000E+00      0.00
    0.00    352.00   -999.99  -999.99  -999.99      0.0000      0.00         0.0000E+00      0.00  0.0000E+00      0.00
    4.00    352.00    -21.68  -999.99   -21.68      0.0000     -0.00 LINEAR  2.8029E-04   -165.30  0.0000E+00      0.00
    8.00    352.00    -15.67  -999.99   -15.67      0.0000     -0.00 LINEAR  5.5944E-04   -171.19  0.0000E+00      0.00
   12.00    352.00    -12.18  -999.99   -12.18      0.0000     -0.00 LINEAR  8.3629E-04   -177.13  0.0000E+00      0.00
   16.00    352.00     -9.72  -999.99    -9.72      0.0000     -0.00 LINEAR  1.1097E-03    176.92  0.0000E+00      0.00
   20.00    352.00     -7.84  -999.99    -7.84      0.0000     -0.00 LINEAR  1.3785E-03    170.98  0.0000E+00      0.00
   24.00    352.00     -6.32  -999.99    -6.32      0.0000     -0.00 LINEAR  1.6415E-03    165.09  0.0000E+00      0.00
   28.00    352.00     -5.06  -999.99    -5.06      0.0000     -0.00 LINEAR  1.8975E-03    159.27  0.0000E+00      0.00
   32.00    352.00     -4.00  -999.99    -4.00      0.0000     -0.00 LINEAR  2.1453E-03    153.54  0.0000E+00      0.00
   36.00    352.00     -3.08  -999.99    -3.08      0.0000     -0.00 LINEAR  2.3838E-03    147.94  0.0000E+00      0.00
   40.00    352.00     -2.29  -999.99    -2.29      0.0000     -0.00 LINEAR  2.6117E-03    142.50  0.0000E+00      0.00
   44.00    352.00     -1.60  -999.99    -1.60      0.0000     -0.00 LINEAR  2.8277E-03    137.23  0.0000E+00      0.00
   48.00    352.00     -1.00  -999.99    -1.00      0.0000     -0.00 LINEAR  3.0308E-03    132.18  0.0000E+00      0.00
   52.00    352.00     -0.47  -999.99    -0.47      0.0000     -0.00 LINEAR  3.2197E-03    127.35  0.0000E+00      0.00
   56.00    352.00     -0.01  -999.99    -0.01      0.0000     -0.00 LINEAR  3.3934E-03    122.78  0.0000E+00      0.00
   60.00    352.00      0.38  -999.99     0.38      0.0000     -0.00 LINEAR  3.5507E-03    118.48  0.0000E+00      0.00
   64.00    352.00      0.71  -999.99     0.71      0.0000     -0.00 LINEAR  3.6908E-03    114.48  0.0000E+00      0.00
   68.00    352.00      1.00  -999.99     1.00      0.0000     -0.00 LINEAR  3.8126E-03    110.80  0.0000E+00      0.00
   72.00    352.00      1.23  -999.99     1.23      0.0000     -0.00 LINEAR  3.9154E-03    107.45  0.0000E+00      0.00
   76.00    352.00      1.41  -999.99     1.41      0.0000     -0.00 LINEAR  3.9984E-03    104.45  0.0000E+00      0.00
   80.00    352.00      1.55  -999.99     1.55      0.0000     -0.00 LINEAR  4.0611E-03    101.82  0.0000E+00      0.00
   84.00    352.00      1.63  -999.99     1.63      0.0000     -0.00 LINEAR  4.1031E-03     99.56  0.0000E+00      0.00
   88.00    352.00      1.68  -999.99     1.68      0.0000     -0.00 LINEAR  4.1240E-03     97.70  0.0000E+00      0.00
   92.00    352.00      1.68  -999.99     1.68      0.0000     -0.00 LINEAR  4.1237E-03     96.24  0.0000E+00      0.00
   96.00    352.00      1.63  -999.99     1.63      0.0000     -0.00 LINEAR  4.1022E-03     95.18  0.0000E+00      0.00
  100.00    352.00      1.54  -999.99     1.54      0.0000     -0.00 LINEAR  4.0597E-03     94.53  0.0000E+00      0.00
  104.00    352.00      1.41  -999.99     1.41      0.0000     -0.00 LINEAR  3.9965E-03     94.30  0.0000E+00      0.00
  108.00    352.00      1.22  -999.99     1.22      0.0000     -0.00 LINEAR  3.9130E-03     94.48  0.0000E+00      0.00
  112.00    352.00      0.99  -999.99     0.99      0.0000     -0.00 LINEAR  3.8098E-03     95.08  0.0000E+00      0.00
  116.00    352.00      0.71  -999.99     0.71      0.0000     -0.00 LINEAR  3.6877E-03     96.09  0.0000E+00      0.00
  120.00    352.00      0.37  -999.99     0.37      0.0000     -0.00 LINEAR  3.5473E-03     97.51  0.0000E+00      0.00
  124.00    352.00     -0.02  -999.99    -0.02      0.0000     -0.00 LINEAR  3.3897E-03     99.33  0.0000E+00      0.00
  128.00    352.00     -0.48  -999.99    -0.48      0.0000     -0.00 LINEAR  3.2159E-03    101.54  0.0000E+00      0.00
  132.00    352.00     -1.01  -999.99    -1.01      0.0000     -0.00 LINEAR  3.0269E-03    104.13  0.0000E+00      0.00
  136.00    352.00     -1.61  -999.99    -1.61      0.0000     -0.00 LINEAR  2.8238E-03    107.09  0.0000E+00      0.00
  140.00    352.00     -2.30  -999.99    -2.30      0.0000     -0.00 LINEAR  2.6078E-03    110.41  0.0000E+00      0.00
  144.00    352.00     -3.10  -999.99    -3.10      0.0000     -0.00 LINEAR  2.3801E-03    114.06  0.0000E+00      0.00
  148.00    352.00     -4.01  -999.99    -4.01      0.0000     -0.00 LINEAR  2.1418E-03    118.03  0.0000E+00      0.00
  152.00    352.00     -5.08  -999.99    -5.08      0.0000     -0.00 LINEAR  1.8943E-03    122.30  0.0000E+00      0.00
  156.00    352.00     -6.34  -999.99    -6.34      0.0000     -0.00 LINEAR  1.6386E-03    126.85  0.0000E+00      0.00
  160.00    352.00     -7.86  -999.99    -7.86      0.0000     -0.00 LINEAR  1.3760E-03    131.66  0.0000E+00      0.00
  164.00    352.00     -9.74  -999.99    -9.74      0.0000     -0.00 LINEAR  1.1076E-03    136.70  0.0000E+00      0.00
  168.00    352.00    -12.20  -999.99   -12.20      0.0000     -0.00 LINEAR  8.3470E-04    141.95  0.0000E+00      0.00
  172.00    352.00    -15.69  -999.99   -15.69      0.0000     -0.00 LINEAR  5.5836E-04    147.38  0.0000E+00      0.00
  176.00    352.00    -21.69  -999.99   -21.69      0.0000     -0.00 LINEAR  2.7975E-04    152.96  0.0000E+00      0.00
  180.00    352.00   -999.99  -999.99  -999.99      0.0000      0.00         4.0927E-14    -21.32  0.0000E+00      0.00
    0.00    356.00   -999.99  -999.99  -999.99      0.0000      0.00         0.0000E+00      0.00  0.0000E+00      0.00
    4.00    356.00    -21.68  -999.99   -21.68      0.0000     -0.00 LINEAR  2.8029E-04   -164.98  0.0000E+00      0.00
    8.00    356.00    -15.67  -999.99   -15.67      0.0000     -0.00 LINEAR  5.5944E-04   -170.56  0.0000E+00      0.00
   12.00    356.00    -12.18  -999.99   -12.18      0.0000     -0.00 LINEAR  8.3629E-04   -176.18  0.0000E+00      0.00
   16.00    356.00     -9.72  -999.99    -9.72      0.0000     -0.00 LINEAR  1.1097E-03    178.17  0.0000E+00      0.00
   20.00    356.00     -7.84  -999.99    -7.84      0.0000     -0.00 LINEAR  1.3785E-03    172.54  0.0000E+00      0.00
   24.00    356.00     -6.32  -999.99    -6.32      0.0000     -0.00 LINEAR  1.6415E-03    166.94  0.0000E+00      0.00
   28.00    356.00     -5.06  -999.99    -5.06      0.0000     -0.00 LINEAR  1.8975E-03    161.40  0.0000E+00      0.00
   32.00    356.00     -4.00  -999.99    -4.00      0.0000     -0.00 LINEAR  2.1453E-03    155.95  0.0000E+00      0.00
   36.00    356.00     -3.08  -999.99    -3.08      0.0000     -0.00 LINEAR  2.3838E-03    150.62  0.0000E+00      0.00
   40.00    356.00     -2.29  -999.99    -2.29      0.0000     -0.00 LINEAR  2.6117E-03    145.42  0.0000E+00      0.00
   44.00    356.00     -1.60  -999.99    -1.60      0.0000     -0.00 LINEAR  2.8277E-03    140.39  0.0000E+00      0.00
   48.00    356.00     -1.00  -999.99    -1.00      0.0000     -0.00 LINEAR  3.0308E-03    135.56  0.0000E+00      0.00
   52.00    356.00     -0.47  -999.99    -0.47      0.0000     -0.00 LINEAR  3.2197E-03    130.93  0.0000E+00      0.00
   56.00    356.00     -0.01  -999.99    -0.01      0.0000     -0.00 LINEAR  3.3934E-03    126.55  0.0000E+00      0.00
   60.00    356.00      0.38  -999.99     0.38      0.0000     -0.00 LINEAR  3.5507E-03    122.42  0.0000E+00      0.00
   64.00    356.00      0.71  -999.99     0.71      0.0000     -0.00 LINEAR  3.6908E-03    118.57  0.0000E+00      0.00
   68.00    356.00      1.00  -999.99     1.00      0.0000     -0.00 LINEAR  3.8126E-03    115.01  0.0000E+00      0.00
   72.00    356.00      1.23  -999.99     1.23      0.0000     -0.00 LINEAR  3.9154E-03    111.77  0.0000E+00      0.00
   76.00    356.00      1.41  -999.99     1.41      0.0000     -0.00 LINEAR  3.9984E-03    108.86  0.0000E+00      0.00
   80.00    356.00      1.55  -999.99     1.55      0.0000     -0.00 LINEAR  4.0611E-03    106.30  0.0000E+00      0.00
   84.00    356.00      1.63  -999.99     1.63      0.0000     -0.00 LINEAR  4.1031E-03    104.09  0.0000E+00      0.00
   88.00    356.00      1.68  -999.99     1.68      0.0000     -0.00 LINEAR  4.1240E-03    102.25  0.0000E+00      0.00
   92.00    356.00      1.68  -999.99     1.68      0.0000     -0.00 LINEAR  4.1237E-03    100.78  0.0000E+00      0.00
   96.00    356.00      1.63  -999.99     1.63      0.0000     -0.00 LINEAR  4.1022E-03     99.70  0.0000E+00      0.00
  100.00    356.00      1.54  -999.99     1.54      0.0000     -0.00 LINEAR  4.0597E-03     99.01  0.0000E+00      0.00
  104.00    356.00      1.41  -999.99     1.41      0.0000     -0.00 LINEAR  3.9965E-03     98.71  0.0000E+00      0.00
  108.00    356.00      1.22  -999.99     1.22      0.0000     -0.00 LINEAR  3.9130E-03     98.81  0.0000E+00      0.00
  112.00    356.00      0.99  -999.99     0.99      0.0000     -0.00 LINEAR  3.8098E-03     99.30  0.0000E+00      0.00
  116.00    356.00      0.71  -999.99     0.71      0.0000     -0.00 LINEAR  3.6877E-03    100.18  0.0000E+00      0.00
  120.00    356.00      0.37  -999.99     0.37      0.0000     -0.00 LINEAR  3.5473E-03    101.45  0.0000E+00      0.00
  124.00    356.00     -0.02  -999.99    -0.02      0.0000     -0.00 LINEAR  3.3897E-03    103.10  0.0000E+00      0.00
  128.00    356.00     -0.48  -999.99    -0.48      0.0000     -0.00 LINEAR  3.2159E-03    105.13  0.0000E+00      0.00
  132.00    356.00     -1.01  -999.99    -1.01      0.0000     -0.00 LINEAR  3.0269E-03    107.51  0.0000E+00      0.00
  136.00    356.00     -1.61  -999.99    -1.61      0.0000     -0.00 LINEAR  2.8238E-03    110.25  0.0000E+00      0.00
  140.00    356.00     -2.30  -999.99    -2.30      0.0000     -0.00 LINEAR  2.6078E-03    113.33  0.0000E+00      0.00
  144.00    356.00     -3.10  -999.99    -3.10      0.0000     -0.00 LINEAR  2.3801E-03    116.73  0.0000E+00      0.00
  148.00    356.00     -4.01  -999.99    -4.01      0.0000     -0.00 LINEAR  2.1418E-03    120.44  0.0000E+00      0.00
  152.00    356.00     -5.08  -999.99    -5.08      0.0000     -0.00 LINEAR  1.8943E-03    124.44  0.0000E+00      0.00
  156.00    356.00     -6.34  -999.99    -6.34      0.0000     -0.00 LINEAR  1.6386E-03    128.70  0.0000E+00      0.00
  160.00    356.00     -7.86  -999.99    -7.86      0.0000     -0.00 LINEAR  1.3760E-03    133.21  0.0000E+00      0.00
  164.00    356.00     -9.74  -999.99    -9.74      0.0000     -0.00 LINEAR  1.1076E-03    137.95  0.0000E+00      0.00
  168.00    356.00    -12.20  -999.99   -12.20      0.0000     -0.00 LINEAR  8.3470E-04    142.89  0.0000E+00      0.00
  172.00    356.00    -15.69  -999.99   -15.69      0.0000     -0.00 LINEAR  5.5836E-04    148.01  0.0000E+00      0.00
  176.00    356.00    -21.69  -999.99   -21.69      0.0000     -0.00 LINEAR  2.7975E-04    153.28  0.0000E+00      0.00
  180.00    356.00   -999.99  -999.99  -999.99      0.0000      0.00         4.0927E-14    -21.32  0.0000E+00      0.00








*****  DATA CARD N0.   5 EN   0     0     0     0  0.00000E+00  0.00000E+00  0.00000E+00  0.00000E+00  0.00000E+00  0.00000E+00

  TOTAL RUN TIME: 40 msec