


                                __________________________________________
                               |                                          |
                               | NUMERICAL ELECTROMAGNETICS CODE (nec2++) |
                               | Translated to 'C++' in Double Precision  |
                               |        Version 1.5.1 [2014-01-02]        |
                               |__________________________________________|



                                -------- STRUCTURE SPECIFICATION --------
                                COORDINATES MUST BE INPUT IN
                                METERS OR BE SCALED TO METERS
                                BEFORE STRUCTURE INPUT IS ENDED
  WIRE                                                                                 SEG FIRST  LAST  TAG
   No:        X1         Y1         Z1         X2         Y2         Z2       RADIUS   No:   SEG   SEG  No:

     1      0.1016     0.0000     0.0000     0.1016     0.0000     0.4800     0.0010     8     1     8    1
     STRUCTURE SCALED BY FACTOR:    1.00000

     TOTAL SEGMENTS USED: 8   SEGMENTS IN A SYMMETRIC CELL: 8   SYMMETRY FLAG: 0


                               ---------- SEGMENTATION DATA ----------
                                        COORDINATES IN METERS
                            I+ AND I- INDICATE THE SEGMENTS BEFORE AND AFTER I

   SEG    COORDINATES OF SEGM CENTER     SEGM    ORIENTATION ANGLES    WIRE    CONNECTION DATA   TAG
   No:       X         Y         Z      LENGTH     ALPHA      BETA    RADIUS    I-     I    I+   NO:
     1    0.1016    0.0000    0.0300    0.0600   90.0000    0.0000    0.0010     0     1     2     1
     2    0.1016    0.0000    0.0900    0.0600   90.0000    0.0000    0.0010     1     2     3     1
     3    0.1016    0.0000    0.1500    0.0600   90.0000    0.0000    0.0010     2     3     4     1
     4    0.1016    0.0000    0.2100    0.0600   90.0000    0.0000    0.0010     3     4     5     1
     5    0.1016    0.0000    0.2700    0.0600   90.0000    0.0000    0.0010     4     5     6     1
     6    0.1016    0.0000    0.3300    0.0600   90.0000    0.0000    0.0010     5     6     7     1
     7    0.1016    0.0000    0.3900    0.0600   90.0000    0.0000    0.0010     6     7     8     1
     8    0.1016    0.0000    0.4500    0.0600   90.0000    0.0000    0.0010     7     8     0     1



*****  DATA CARD N0.   1 GN  -1     0     0     0  0.00000E+00  0.00000E+00  0.00000E+00  0.00000E+00  0.00000E+00  0.00000E+00
*****  DATA CARD N0.   2 FR   0     1     0     0  1.00000E+02  1.00000E+01  0.00000E+00  0.00000E+00  0.00000E+00  0.00000E+00
*****  DATA CARD N0.   3 EX   0     1     1     0  1.00000E+00  0.00000E+00  0.00000E+00  0.00000E+00  0.00000E+00  0.00000E+00
*****  DATA CARD N0.   4 RP   0    46    90  1000  0.00000E+00  0.00000E+00  4.00000E+00  4.00000E+00  0.00000E+00  0.00000E+00


                               --------- FREQUENCY --------
                               FREQUENCY=  1.0000E+02 MHZ
                               WAVELENGTH= 2.9980E+00 METERS


                        APPROXIMATE INTEGRATION EMPLOYED FOR SEGMENTS
                        THAT ARE MORE THAN 1.000 WAVELENGTHS APART



                          ------ STRUCTURE IMPEDANCE LOADING ------
                                 THIS STRUCTURE IS NOT LOADED



                            -------- ANTENNA ENVIRONMENT --------
                            FREE SPACE



                             ---------- MATRIX TIMING ----------
                               FILL= 0 msec  FACTOR: 0 msec


                      ----- ANTENNA INPUT PARAMETERS -----
  TAG   SEG       VOLTAGE (VOLTS)         CURRENT (AMPS)         IMPEDANCE (OHMS)        ADMITTANCE (MHOS)     POWER
  NO.   NO.     REAL      IMAGINARY     REAL      IMAGINARY     REAL      IMAGINARY    REAL       IMAGINARY   (WATTS)
   1     1  1.0000E+00  0.0000E+00  3.8542E-07  2.1831E-04  8.0869E+00 -4.5806E+03  3.8542E-07  2.1831E-04  1.9271E-07







                        ----- CURRENTS AND LOCATION -----
                            DISTANCES IN WAVELENGTHS 

   SEG  TAG    COORDINATES OF SEGM CENTER     SEGM    ------------- CURRENT (AMPS) -------------
   No:  No:       X         Y         Z      LENGTH     REAL      IMAGINARY    MAGN        PHASE
     1    1    0.0339    0.0000    0.0100   0.02001  3.8542E-07  2.1831E-04  2.1831E-04   89.899 
     2    1    0.0339    0.0000    0.0300   0.02001  9.0625E-07  2.3467E-04  2.3467E-04   89.779 
     3    1    0.0339    0.0000    0.0500   0.02001  1.2301E-06  1.9510E-04  1.9511E-04   89.639 
     4    1    0.0339    0.0000    0.0700   0.02001  1.3889E-06  1.6240E-04  1.6241E-04   89.510 
     5    1    0.0339    0.0000    0.0901   0.02001  1.3873E-06  1.2991E-04  1.2992E-04   89.388 
     6    1    0.0339    0.0000    0.1101   0.02001  1.2260E-06  9.6421E-05  9.6429E-05   89.272 
     7    1    0.0339    0.0000    0.1301   0.02001  9.0121E-07  6.1364E-05  6.1371E-05   89.159 
     8    1    0.0339    0.0000    0.1501   0.02001  3.8242E-07  2.3064E-05  2.3067E-05   89.050 






                               ---------- POWER BUDGET ---------
                               INPUT POWER   =  1.9271E-07 Watts
                               RADIATED POWER=  1.9271E-07 Watts
                               STRUCTURE LOSS=  0.0000E+00 Watts
                               NETWORK LOSS  =  0.0000E+00 Watts
                               EFFICIENCY    =  100.00 Percent


                         ----- RADIATION PATTERNS -----
 ---- ANGLES -----     ----- POWER GAINS -----       ---- POLARIZATION ----   ---- E(THETA) ----    ----- E(PHI) ------
  THETA      PHI       VERTC   HORIZ   TOTAL       AXIAL      TILT  SENSE   MAGNITUDE    PHASE    MAGNITUDE     PHASE
 DEGREES   DEGREES        DB       DB       DB       RATIO   DEGREES            VOLTS/M   DEGREES     VOLTS/M   DEGREES
    0.00      0.00   -999.99  -999.99  -999.99      0.0000      0.00         0.0000E+00      0.00  0.0000E+00      0.00
    4.00      0.00    -21.68  -999.99   -21.68      0.0000     -0.00 LINEAR  2.8029E-04   -158.68  0.0000E+00      0.00
    8.00      0.00    -15.67  -999.99   -15.67      0.0000     -0.00 LINEAR  5.5944E-04   -157.99  0.0000E+00      0.00
   12.00      0.00    -12.18  -999.99   -12.18      0.0000     -0.00 LINEAR  8.3629E-04   -157.40  0.0000E+00      0.00
   16.00      0.00     -9.72  -999.99    -9.72      0.0000     -0.00 LINEAR  1.1097E-03   -156.93  0.0000E+00      0.00
   20.00      0.00     -7.84  -999.99    -7.84      0.0000     -0.00 LINEAR  1.3785E-03   -156.57  0.0000E+00      0.00
   24.00      0.00     -6.32  -999.99    -6.32      0.0000     -0.00 LINEAR  1.6415E-03   -156.32  0.0000E+00      0.00
   28.00      0.00     -5.06  -999.99    -5.06      0.0000     -0.00 LINEAR  1.8975E-03   -156.19  0.0000E+00      0.00
   32.00      0.00     -4.00  -999.99    -4.00      0.0000     -0.00 LINEAR  2.1453E-03   -156.18  0.0000E+00      0.00
   36.00      0.00     -3.08  -999.99    -3.08      0.0000     -0.00 LINEAR  2.3838E-03   -156.29  0.0000E+00      0.00
   40.00      0.00     -2.29  -999.99    -2.29      0.0000     -0.00 LINEAR  2.6117E-03   -156.52  0.0000E+00      0.00
   44.00      0.00     -1.60  -999.99    -1.60      0.0000     -0.00 LINEAR  2.8277E-03   -156.86  0.0000E+00      0.00
   48.00      0.00     -1.00  -999.99    -1.00      0.0000     -0.00 LINEAR  3.0308E-03   -157.32  0.0000E+00      0.00
   52.00      0.00     -0.47  -999.99    -0.47      0.0000     -0.00 LINEAR  3.2197E-03   -157.89  0.0000E+00      0.00
   56.00      0.00     -0.01  -999.99    -0.01      0.0000     -0.00 LINEAR  3.3934E-03   -158.57  0.0000E+00      0.00
   60.00      0.00      0.38  -999.99     0.38      0.0000     -0.00 LINEAR  3.5507E-03   -159.35  0.0000E+00      0.00
   64.00      0.00      0.71  -999.99     0.71      0.0000     -0.00 LINEAR  3.6908E-03   -160.25  0.0000E+00      0.00
   68.00      0.00      1.00  -999.99     1.00      0.0000     -0.00 LINEAR  3.8126E-03   -161.24  0.0000E+00      0.00
   72.00      0.00      1.23  -999.99     1.23      0.0000     -0.00 LINEAR  3.9154E-03   -162.32  0.0000E+00      0.00
   76.00      0.00      1.41  -999.99     1.41      0.0000     -0.00 LINEAR  3.9984E-03   -163.49  0.0000E+00      0.00
   80.00      0.00      1.55  -999.99     1.55      0.0000     -0.00 LINEAR  4.0611E-03   -164.75  0.0000E+00      0.00
   84.00      0.00      1.63  -999.99     1.63      0.0000     -0.00 LINEAR  4.1031E-03   -166.08  0.0000E+00      0.00
   88.00      0.00      1.68  -999.99     1.68      0.0000     -0.00 LINEAR  4.1240E-03   -167.48  0.0000E+00      0.00
   92.00      0.00      1.68  -999.99     1.68      0.0000     -0.00 LINEAR  4.1237E-03   -168.94  0.0000E+00      0.00
   96.00      0.00      1.63  -999.99     1.63      0.0000     -0.00 LINEAR  4.1022E-03   -170.46  0.0000E+00      0.00
  100.00      0.00      1.54  -999.99     1.54      0.0000     -0.00 LINEAR  4.0597E-03   -172.03  0.0000E+00      0.00
  104.00      0.00      1.41  -999.99     1.41      0.0000     -0.00 LINEAR  3.9965E-03   -173.64  0.0000E+00      0.00
  108.00      0.00      1.22  -999.99     1.22      0.0000     -0.00 LINEAR  3.9130E-03   -175.28  0.0000E+00      0.00
  112.00      0.00      0.99  -999.99     0.99      0.0000     -0.00 LINEAR  3.8098E-03   -176.95  0.0000E+00      0.00
  116.00      0.00      0.71  -999.99     0.71      0.0000     -0.00 LINEAR  3.6877E-03   -178.63  0.0000E+00      0.00
  120.00      0.00      0.37  -999.99     0.37      0.0000     -0.00 LINEAR  3.5473E-03    179.68  0.0000E+00      0.00
  124.00      0.00     -0.02  -999.99    -0.02      0.0000     -0.00 LINEAR  3.3897E-03    177.99  0.0000E+00      0.00
  128.00      0.00     -0.48  -999.99    -0.48      0.0000     -0.00 LINEAR  3.2159E-03    176.31  0.0000E+00      0.00
  132.00      0.00     -1.01  -999.99    -1.01      0.0000     -0.00 LINEAR  3.0269E-03    174.64  0.0000E+00      0.00
  136.00      0.00     -1.61  -999.99    -1.61      0.0000     -0.00 LINEAR  2.8238E-03    173.00  0.0000E+00      0.00
  140.00      0.00     -2.30  -999.99    -2.30      0.0000     -0.00 LINEAR  2.6078E-03    171.39  0.0000E+00      0.00
  144.00      0.00     -3.10  -999.99    -3.10      0.0000     -0.00 LINEAR  2.3801E-03    169.83  0.0000E+00      0.00
  148.00      0.00     -4.01  -999.99    -4.01      0.0000     -0.00 LINEAR  2.1418E-03    168.31  0.0000E+00      0.00
  152.00      0.00     -5.08  -999.99    -5.08      0.0000     -0.00 LINEAR  1.8943E-03    166.84  0.0000E+00      0.00
  156.00      0.00     -6.34  -999.99    -6.34      0.0000     -0.00 LINEAR  1.6386E-03    165.44  0.0000E+00      0.00
  160.00      0.00     -7.86  -999.99    -7.86      0.0000     -0.00 LINEAR  1.3760E-03    164.11  0.0000E+00      0.00
  164.00      0.00     -9.74  -999.99    -9.74      0.0000     -0.00 LINEAR  1.1076E-03    162.85  0.0000E+00      0.00
  168.00      0.00    -12.20  -999.99   -12.20      0.0000     -0.00 LINEAR  8.3470E-04    161.67  0.0000E+00      0.00
  172.00      0.00    -15.69  -999.99   -15.69      0.0000     -0.00 LINEAR  5.5836E-04    160.58  0.0000E+00      0.00
  176.00      0.00    -21.69  -999.99   -21.69      0.0000     -0.00 LINEAR  2.7975E-04    159.58  0.0000E+00      0.00
  180.00      0.00   -999.99  -999.99  -999.99      0.0000      0.00         4.0927E-14    -21.32  0.0000E+00      0.00
    0.00      4.00   -999.99  -999.99  -999.99      0.0000      0.00         0.0000E+00      0.00  0.0000E+00      0.00
    4.00      4.00    -21.68  -999.99   -21.68      0.0000     -0.00 LINEAR  2.8029E-04   -158.69  0.0000E+00      0.00
    8.00      4.00    -15.67  -999.99   -15.67      0.0000     -0.00 LINEAR  5.5944E-04   -157.99  0.0000E+00      0.00
   12.00      4.00    -12.18  -999.99   -12.18      0.0000     -0.00 LINEAR  8.3629E-04   -157.41  0.0000E+00      0.00
   16.00      4.00     -9.72  -999.99    -9.72      0.0000     -0.00 LINEAR  1.1097E-03   -156.94  0.0000E+00      0.00
   20.00      4.00     -7.84  -999.99    -7.84      0.0000     -0.00 LINEAR  1.3785E-03   -156.58  0.0000E+00      0.00
   24.00      4.00     -6.32  -999.99    -6.32      0.0000     -0.00 LINEAR  1.6415E-03   -156.33  0.0000E+00      0.00
   28.00      4.00     -5.06  -999.99    -5.06      0.0000     -0.00 LINEAR  1.8975E-03   -156.21  0.0000E+00      0.00
   32.00      4.00     -4.00  -999.99    -4.00      0.0000     -0.00 LINEAR  2.1453E-03   -156.20  0.0000E+00      0.00
   36.00      4.00     -3.08  -999.99    -3.08      0.0000     -0.00 LINEAR  2.3838E-03   -156.31  0.0000E+00      0.00
   40.00      4.00     -2.29  -999.99    -2.29      0.0000     -0.00 LINEAR  2.6117E-03   -156.53  0.0000E+00      0.00
   44.00      4.00     -1.60  -999.99    -1.60      0.0000     -0.00 LINEAR  2.8277E-03   -156.88  0.0000E+00      0.00
   48.00      4.00     -1.00  -999.99    -1.00      0.0000     -0.00 LINEAR  3.0308E-03   -157.34  0.0000E+00      0.00
   52.00      4.00     -0.47  -999.99    -0.47      0.0000     -0.00 LINEAR  3.2197E-03   -157.91  0.0000E+00      0.00
   56.00      4.00     -0.01  -999.99    -0.01      0.0000     -0.00 LINEAR  3.3934E-03   -158.59  0.0000E+00      0.00
   60.00      4.00      0.38  -999.99     0.38      0.0000     -0.00 LINEAR  3.5507E-03   -159.38  0.0000E+00      0.00
   64.00      4.00      0.71  -999.99     0.71      0.0000     -0.00 LINEAR  3.6908E-03   -160.27  0.0000E+00      0.00
   68.00      4.00      1.00  -999.99     1.00      0.0000     -0.00 LINEAR  3.8126E-03   -161.26  0.0000E+00      0.00
   72.00      4.00      1.23  -999.99     1.23      0.0000     -0.00 LINEAR  3.9154E-03   -162.35  0.0000E+00      0.00
   76.00      4.00      1.41  -999.99     1.41      0.0000     -0.00 LINEAR  3.9984E-03   -163.52  0.0000E+00      0.00
   80.00      4.00      1.55  -999.99     1.55      0.0000     -0.00 LINEAR  4.0611E-03   -164.78  0.0000E+00      0.00
   84.00      4.00      1.63  -999.99     1.63      0.0000     -0.00 LINEAR  4.1031E-03   -166.11  0.0000E+00      0.00
   88.00      4.00      1.68  -999.99     1.68      0.0000     -0.00 LINEAR  4.1240E-03   -167.51  0.0000E+00      0.00
   92.00      4.00      1.68  -999.99     1.68      0.0000     -0.00 LINEAR  4.1237E-03   -168.97  0.0000E+00      0.00
   96.00      4.00      1.63  -999.99     1.63      0.0000     -0.00 LINEAR  4.1022E-03   -170.49  0.0000E+00      0.00
  100.00      4.00      1.54  -999.99     1.54      0.0000     -0.00 LINEAR  4.0597E-03   -172.06  0.0000E+00      0.00
  104.00      4.00      1.41  -999.99     1.41      0.0000     -0.00 LINEAR  3.9965E-03   -173.67  0.0000E+00      0.00
  108.00      4.00      1.22  -999.99     1.22      0.0000     -0.00 LINEAR  3.9130E-03   -175.31  0.0000E+00      0.00
  112.00      4.00      0.99  -999.99     0.99      0.0000     -0.00 LINEAR  3.8098E-03   -176.98  0.0000E+00      0.00
  116.00      4.00      0.71  -999.99     0.71      0.0000     -0.00 LINEAR  3.6877E-03   -178.66  0.0000E+00      0.00
  120.00      4.00      0.37  -999.99     0.37      0.0000     -0.00 LINEAR  3.5473E-03    179.65  0.0000E+00      0.00
  124.00      4.00     -0.02  -999.99    -0.02      0.0000     -0.00 LINEAR  3.3897E-03    177.96  0.0000E+00      0.00
  128.00      4.00     -0.48  -999.99    -0.48      0.0000     -0.00 LINEAR  3.2159E-03    176.28  0.0000E+00      0.00
  132.00      4.00     -1.01  -999.99    -1.01      0.0000     -0.00 LINEAR  3.0269E-03    174.62  0.0000E+00      0.00
  136.00      4.00     -1.61  -999.99    -1.61      0.0000     -0.00 LINEAR  2.8238E-03    172.98  0.0000E+00      0.00
  140.00      4.00     -2.30  -999.99    -2.30      0.0000     -0.00 LINEAR  2.6078E-03    171.37  0.0000E+00      0.00
  144.00      4.00     -3.10  -999.99    -3.10      0.0000     -0.00 LINEAR  2.3801E-03    169.81  0.0000E+00      0.00
  148.00      4.00     -4.01  -999.99    -4.01      0.0000     -0.00 LINEAR  2.1418E-03    168.29  0.0000E+00      0.00
  152.00      4.00     -5.08  -999.99    -5.08      0.0000     -0.00 LINEAR  1.8943E-03    166.83  0.0000E+00      0.00
  156.00      4.00     -6.34  -999.99    -6.34      0.0000     -0.00 LINEAR  1.6386E-03    165.43  0.0000E+00      0.00
  160.00      4.00     -7.86  -999.99    -7.86      0.0000     -0.00 LINEAR  1.3760E-03    164.10  0.0000E+00      0.00
  164.00      4.00     -9.74  -999.99    -9.74      0.0000     -0.00 LINEAR  1.1076E-03    162.84  0.0000E+00      0.00
  168.00      4.00    -12.20  -999.99   -12.20      0.0000     -0.00 LINEAR  8.3470E-04    161.67  0.0000E+00      0.00
  172.00      4.00    -15.69  -999.99   -15.69      0.0000     -0.00 LINEAR  5.5836E-04    160.58  0.0000E+00      0.00
  176.00      4.00    -21.69  -999.99   -21.69      0.0000     -0.00 LINEAR  2.7975E-04    159.58  0.0000E+00      0.00
  180.00      4.00   -999.99  -999.99  -999.99      0.0000      0.00         4.0927E-14    -21.32  0.0000E+00      0.00
    0.00      8.00   -999.99  -999.99  -999.99      0.0000      0.00         0.0000E+00      0.00  0.0000E+00      0.00
    4.00      8.00    -21.68  -999.99   -21.68      0.0000     -0.00 LINEAR  2.8029E-04   -158.69  0.0000E+00      0.00
    8.00      8.00    -15.67  -999.99   -15.67      0.0000     -0.00 LINEAR  5.5944E-04   -158.01  0.0000E+00      0.00
   12.00      8.00    -12.18  -999.99   -12.18      0.0000     -0.00 LINEAR  8.3629E-04   -157.43  0.0000E+00      0.00
   16.00      8.00     -9.72  -999.99    -9.72      0.0000     -0.00 LINEAR  1.1097E-03   -156.96  0.0000E+00      0.00
   20.00      8.00     -7.84  -999.99    -7.84      0.0000     -0.00 LINEAR  1.3785E-03   -156.61  0.0000E+00      0.00
   24.00      8.00     -6.32  -999.99    -6.32      0.0000     -0.00 LINEAR  1.6415E-03   -156.37  0.0000E+00      0.00
   28.00      8.00     -5.06  -999.99    -5.06      0.0000     -0.00 LINEAR  1.8975E-03   -156.25  0.0000E+00      0.00
   32.00      8.00     -4.00  -999.99    -4.00      0.0000     -0.00 LINEAR  2.1453E-03   -156.25  0.0000E+00      0.00
   36.00      8.00     -3.08  -999.99    -3.08      0.0000     -0.00 LINEAR  2.3838E-03   -156.36  0.0000E+00      0.00
   40.00      8.00     -2.29  -999.99    -2.29      0.0000     -0.00 LINEAR  2.6117E-03   -156.59  0.0000E+00      0.00
   44.00      8.00     -1.60  -999.99    -1.60      0.0000     -0.00 LINEAR  2.8277E-03   -156.94  0.0000E+00      0.00
   48.00      8.00     -1.00  -999.99    -1.00      0.0000     -0.00 LINEAR  3.0308E-03   -157.40  0.0000E+00      0.00
   52.00      8.00     -0.47  -999.99    -0.47      0.0000     -0.00 LINEAR  3.2197E-03   -157.98  0.0000E+00      0.00
   56.00      8.00     -0.01  -999.99    -0.01      0.0000     -0.00 LINEAR  3.3934E-03   -158.67  0.0000E+00      0.00
   60.00      8.00      0.38  -999.99     0.38      0.0000     -0.00 LINEAR  3.5507E-03   -159.46  0.0000E+00      0.00
   64.00      8.00      0.71  -999.99     0.71      0.0000     -0.00 LINEAR  3.6908E-03   -160.35  0.0000E+00      0.00
   68.00      8.00      1.00  -999.99     1.00      0.0000     -0.00 LINEAR  3.8126E-03   -161.35  0.0000E+00      0.00
   72.00      8.00      1.23  -999.99     1.23      0.0000     -0.00 LINEAR  3.9154E-03   -162.43  0.0000E+00      0.00
   76.00      8.00      1.41  -999.99     1.41      0.0000     -0.00 LINEAR  3.9984E-03   -163.61  0.0000E+00      0.00
   80.00      8.00      1.55  -999.99     1.55      0.0000     -0.00 LINEAR  4.0611E-03   -164.86  0.0000E+00      0.00
   84.00      8.00      1.63  -999.99     1.63      0.0000     -0.00 LINEAR  4.1031E-03   -166.20  0.0000E+00      0.00
   88.00      8.00      1.68  -999.99     1.68      0.0000     -0.00 LINEAR  4.1240E-03   -167.60  0.0000E+00      0.00
   92.00      8.00      1.68  -999.99     1.68      0.0000     -0.00 LINEAR  4.1237E-03   -169.06  0.0000E+00      0.00
   96.00      8.00      1.63  -999.99     1.63      0.0000     -0.00 LINEAR  4.1022E-03   -170.58  0.0000E+00      0.00
  100.00      8.00      1.54  -999.99     1.54      0.0000     -0.00 LINEAR  4.0597E-03   -172.15  0.0000E+00      0.00
  104.00      8.00      1.41  -999.99     1.41      0.0000     -0.00 LINEAR  3.9965E-03   -173.76  0.0000E+00      0.00
  108.00      8.00      1.22  -999.99     1.22      0.0000     -0.00 LINEAR  3.9130E-03   -175.40  0.0000E+00      0.00
  112.00      8.00      0.99  -999.99     0.99      0.0000     -0.00 LINEAR  3.8098E-03   -177.06  0.0000E+00      0.00
  116.00      8.00      0.71  -999.99     0.71      0.0000     -0.00 LINEAR  3.6877E-03   -178.74  0.0000E+00      0.00
  120.00      8.00      0.37  -999.99     0.37      0.0000     -0.00 LINEAR  3.5473E-03    179.57  0.0000E+00      0.00
  124.00      8.00     -0.02  -999.99    -0.02      0.0000     -0.00 LINEAR  3.3897E-03    177.89  0.0000E+00      0.00
  128.00      8.00     -0.48  -999.99    -0.48      0.0000     -0.00 LINEAR  3.2159E-03    176.21  0.0000E+00      0.00
  132.00      8.00     -1.01  -999.99    -1.01      0.0000     -0.00 LINEAR  3.0269E-03    174.55  0.0000E+00      0.00
  136.00      8.00     -1.61  -999.99    -1.61      0.0000     -0.00 LINEAR  2.8238E-03    172.92  0.0000E+00      0.00
  140.00      8.00     -2.30  -999.99    -2.30      0.0000     -0.00 LINEAR  2.6078E-03    171.32  0.0000E+00      0.00
  144.00      8.00     -3.10  -999.99    -3.10      0.0000     -0.00 LINEAR  2.3801E-03    169.76  0.0000E+00      0.00
  148.00      8.00     -4.01  -999.99    -4.01      0.0000     -0.00 LINEAR  2.1418E-03    168.24  0.0000E+00      0.00
  152.00      8.00     -5.08  -999.99    -5.08      0.0000     -0.00 LINEAR  1.8943E-03    166.79  0.0000E+00      0.00
  156.00      8.00     -6.34  -999.99    -6.34      0.0000     -0.00 LINEAR  1.6386E-03    165.39  0.0000E+00      0.00
  160.00      8.00     -7.86  -999.99    -7.86      0.0000     -0.00 LINEAR  1.3760E-03    164.07  0.0000E+00      0.00
  164.00      8.00     -9.74  -999.99    -9.74      0.0000     -0.00 LINEAR  1.1076E-03    162.82  0.0000E+00      0.00
  168.00      8.00    -12.20  -999.99   -12.20      0.0000     -0.00 LINEAR  8.3470E-04    161.65  0.0000E+00      0.00
  172.00      8.00    -15.69  -999.99   -15.69      0.0000     -0.00 LINEAR  5.5836E-04    160.56  0.0000E+00      0.00
  176.00      8.00    -21.69  -999.99   -21.69      0.0000     -0.00 LINEAR  2.7975E-04    159.57  0.0000E+00      0.00
  180.00      8.00   -999.99  -999.99  -999.99      0.0000      0.00         4.0927E-14    -21.32  0.0000E+00      0.00
    0.00     12.00   -999.99  -999.99  -999.99      0.0000      0.00         0.0000E+00      0.00  0.0000E+00      0.00
    4.00     12.00    -21.68  -999.99   -21.68      0.0000     -0.00 LINEAR  2.8029E-04   -158.70  0.0000E+00      0.00
    8.00     12.00    -15.67  -999.99   -15.67      0.0000     -0.00 LINEAR  5.5944E-04   -158.03  0.0000E+00      0.00
   12.00     12.00    -12.18  -999.99   -12.18      0.0000     -0.00 LINEAR  8.3629E-04   -157.46  0.0000E+00      0.00
   16.00     12.00     -9.72  -999.99    -9.72      0.0000     -0.00 LINEAR  1.1097E-03   -157.00  0.0000E+00      0.00
   20.00     12.00     -7.84  -999.99    -7.84      0.0000     -0.00 LINEAR  1.3785E-03   -156.66  0.0000E+00      0.00
   24.00     12.00     -6.32  -999.99    -6.32      0.0000     -0.00 LINEAR  1.6415E-03   -156.43  0.0000E+00      0.00
   28.00     12.00     -5.06  -999.99    -5.06      0.0000     -0.00 LINEAR  1.8975E-03   -156.32  0.0000E+00      0.00
   32.00     12.00     -4.00  -999.99    -4.00      0.0000     -0.00 LINEAR  2.1453E-03   -156.32  0.0000E+00      0.00
   36.00     12.00     -3.08  -999.99    -3.08      0.0000     -0.00 LINEAR  2.3838E-03   -156.45  0.0000E+00      0.00
   40.00     12.00     -2.29  -999.99    -2.29      0.0000     -0.00 LINEAR  2.6117E-03   -156.69  0.0000E+00      0.00
   44.00     12.00     -1.60  -999.99    -1.60      0.0000     -0.00 LINEAR  2.8277E-03   -157.04  0.0000E+00      0.00
   48.00     12.00     -1.00  -999.99    -1.00      0.0000     -0.00 LINEAR  3.0308E-03   -157.51  0.0000E+00      0.00
   52.00     12.00     -0.47  -999.99    -0.47      0.0000     -0.00 LINEAR  3.2197E-03   -158.10  0.0000E+00      0.00
   56.00     12.00     -0.01  -999.99    -0.01      0.0000     -0.00 LINEAR  3.3934E-03   -158.79  0.0000E+00      0.00
   60.00     12.00      0.38  -999.99     0.38      0.0000     -0.00 LINEAR  3.5507E-03   -159.59  0.0000E+00      0.00
   64.00     12.00      0.71  -999.99     0.71      0.0000     -0.00 LINEAR  3.6908E-03   -160.48  0.0000E+00      0.00
   68.00     12.00      1.00  -999.99     1.00      0.0000     -0.00 LINEAR  3.8126E-03   -161.48  0.0000E+00      0.00
   72.00     12.00      1.23  -999.99     1.23      0.0000     -0.00 LINEAR  3.9154E-03   -162.57  0.0000E+00      0.00
   76.00     12.00      1.41  -999.99     1.41      0.0000     -0.00 LINEAR  3.9984E-03   -163.75  0.0000E+00      0.00
   80.00     12.00      1.55  -999.99     1.55      0.0000     -0.00 LINEAR  4.0611E-03   -165.01  0.0000E+00      0.00
   84.00     12.00      1.63  -999.99     1.63      0.0000     -0.00 LINEAR  4.1031E-03   -166.34  0.0000E+00      0.00
   88.00     12.00      1.68  -999.99     1.68      0.0000     -0.00 LINEAR  4.1240E-03   -167.75  0.0000E+00      0.00
   92.00     12.00      1.68  -999.99     1.68      0.0000     -0.00 LINEAR  4.1237E-03   -169.21  0.0000E+00      0.00
   96.00     12.00      1.63  -999.99     1.63      0.0000     -0.00 LINEAR  4.1022E-03   -170.73  0.0000E+00      0.00
  100.00     12.00      1.54  -999.99     1.54      0.0000     -0.00 LINEAR  4.0597E-03   -172.30  0.0000E+00      0.00
  104.00     12.00      1.41  -999.99     1.41      0.0000     -0.00 LINEAR  3.9965E-03   -173.90  0.0000E+00      0.00
  108.00     12.00      1.22  -999.99     1.22      0.0000     -0.00 LINEAR  3.9130E-03   -175.54  0.0000E+00      0.00
  112.00     12.00      0.99  -999.99     0.99      0.0000     -0.00 LINEAR  3.8098E-03   -177.20  0.0000E+00      0.00
  116.00     12.00      0.71  -999.99     0.71      0.0000     -0.00 LINEAR  3.6877E-03   -178.87  0.0000E+00      0.00
  120.00     12.00      0.37  -999.99     0.37      0.0000     -0.00 LINEAR  3.5473E-03    179.45  0.0000E+00      0.00
  124.00     12.00     -0.02  -999.99    -0.02      0.0000     -0.00 LINEAR  3.3897E-03    177.77  0.0000E+00      0.00
  128.00     12.00     -0.48  -999.99    -0.48      0.0000     -0.00 LINEAR  3.2159E-03    176.10  0.0000E+00      0.00
  132.00     12.00     -1.01  -999.99    -1.01      0.0000     -0.00 LINEAR  3.0269E-03    174.44  0.0000E+00      0.00
  136.00     12.00     -1.61  -999.99    -1.61      0.0000     -0.00 LINEAR  2.8238E-03    172.82  0.0000E+00      0.00
  140.00     12.00     -2.30  -999.99    -2.30      0.0000     -0.00 LINEAR  2.6078E-03    171.22  0.0000E+00      0.00
  144.00     12.00     -3.10  -999.99    -3.10      0.0000     -0.00 LINEAR  2.3801E-03    169.67  0.0000E+00      0.00
  148.00     12.00     -4.01  -999.99    -4.01      0.0000     -0.00 LINEAR  2.1418E-03    168.17  0.0000E+00      0.00
  152.00     12.00     -5.08  -999.99    -5.08      0.0000     -0.00 LINEAR  1.8943E-03    166.72  0.0000E+00      0.00
  156.00     12.00     -6.34  -999.99    -6.34      0.0000     -0.00 LINEAR  1.6386E-03    165.33  0.0000E+00      0.00
  160.00     12.00     -7.86  -999.99    -7.86      0.0000     -0.00 LINEAR  1.3760E-03    164.02  0.0000E+00      0.00
  164.00     12.00     -9.74  -999.99    -9.74      0.0000     -0.00 LINEAR  1.1076E-03    162.78  0.0000E+00      0.00
  168.00     12.00    -12.20  -999.99   -12.20      0.0000     -0.00 LINEAR  8.3470E-04    161.62  0.0000E+00      0.00
  172.00     12.00    -15.69  -999.99   -15.69      0.0000     -0.00 LINEAR  5.5836E-04    160.54  0.0000E+00      0.00
  176.00     12.00    -21.69  -999.99   -21.69      0.0000     -0.00 LINEAR  2.7975E-04    159.56  0.0000E+00      0.00
  180.00     12.00   -999.99  -999.99  -999.99      0.0000      0.00         4.0927E-14    -21.32  0.0000E+00      0.00
    0.00     16.00   -999.99  -999.99  -999.99      0.0000      0.00         0.0000E+00      0.00  0.0000E+00      0.00
    4.00     16.00    -21.68  -999.99   -21.68      0.0000     -0.00 LINEAR  2.8029E-04   -158.72  0.0000E+00      0.00
    8.00     16.00    -15.67  -999.99   -15.67      0.0000     -0.00 LINEAR  5.5944E-04   -158.05  0.0000E+00      0.00
   12.00     16.00    -12.18  -999.99   -12.18      0.0000     -0.00 LINEAR  8.3629E-04   -157.50  0.0000E+00      0.00
   16.00     16.00     -9.72  -999.99    -9.72      0.0000     -0.00 LINEAR  1.1097E-03   -157.06  0.0000E+00      0.00
   20.00     16.00     -7.84  -999.99    -7.84      0.0000     -0.00 LINEAR  1.3785E-03   -156.73  0.0000E+00      0.00
   24.00     16.00     -6.32  -999.99    -6.32      0.0000     -0.00 LINEAR  1.6415E-03   -156.51  0.0000E+00      0.00
   28.00     16.00     -5.06  -999.99    -5.06      0.0000     -0.00 LINEAR  1.8975E-03   -156.41  0.0000E+00      0.00
   32.00     16.00     -4.00  -999.99    -4.00      0.0000     -0.00 LINEAR  2.1453E-03   -156.43  0.0000E+00      0.00
   36.00     16.00     -3.08  -999.99    -3.08      0.0000     -0.00 LINEAR  2.3838E-03   -156.57  0.0000E+00      0.00
   40.00     16.00     -2.29  -999.99    -2.29      0.0000     -0.00 LINEAR  2.6117E-03   -156.82  0.0000E+00      0.00
   44.00     16.00     -1.60  -999.99    -1.60      0.0000     -0.00 LINEAR  2.8277E-03   -157.19  0.0000E+00      0.00
   48.00     16.00     -1.00  -999.99    -1.00      0.0000     -0.00 LINEAR  3.0308E-03   -157.67  0.0000E+00      0.00
   52.00     16.00     -0.47  -999.99    -0.47      0.0000     -0.00 LINEAR  3.2197E-03   -158.26  0.0000E+00      0.00
   56.00     16.00     -0.01  -999.99    -0.01      0.0000     -0.00 LINEAR  3.3934E-03   -158.96  0.0000E+00      0.00
   60.00     16.00      0.38  -999.99     0.38      0.0000     -0.00 LINEAR  3.5507E-03   -159.76  0.0000E+00      0.00
   64.00     16.00      0.71  -999.99     0.71      0.0000     -0.00 LINEAR  3.6908E-03   -160.67  0.0000E+00      0.00
   68.00     16.00      1.00  -999.99     1.00      0.0000     -0.00 LINEAR  3.8126E-03   -161.67  0.0000E+00      0.00
   72.00     16.00      1.23  -999.99     1.23      0.0000     -0.00 LINEAR  3.9154E-03   -162.77  0.0000E+00      0.00
   76.00     16.00      1.41  -999.99     1.41      0.0000     -0.00 LINEAR  3.9984E-03   -163.95  0.0000E+00      0.00
   80.00     16.00      1.55  -999.99     1.55      0.0000     -0.00 LINEAR  4.0611E-03   -165.21  0.0000E+00      0.00
   84.00     16.00      1.63  -999.99     1.63      0.0000     -0.00 LINEAR  4.1031E-03   -166.55  0.0000E+00      0.00
   88.00     16.00      1.68  -999.99     1.68      0.0000     -0.00 LINEAR  4.1240E-03   -167.95  0.0000E+00      0.00
   92.00     16.00      1.68  -999.99     1.68      0.0000     -0.00 LINEAR  4.1237E-03   -169.42  0.0000E+00      0.00
   96.00     16.00      1.63  -999.99     1.63      0.0000     -0.00 LINEAR  4.1022E-03   -170.93  0.0000E+00      0.00
  100.00     16.00      1.54  -999.99     1.54      0.0000     -0.00 LINEAR  4.0597E-03   -172.50  0.0000E+00      0.00
  104.00     16.00      1.41  -999.99     1.41      0.0000     -0.00 LINEAR  3.9965E-03   -174.10  0.0000E+00      0.00
  108.00     16.00      1.22  -999.99     1.22      0.0000     -0.00 LINEAR  3.9130E-03   -175.73  0.0000E+00      0.00
  112.00     16.00      0.99  -999.99     0.99      0.0000     -0.00 LINEAR  3.8098E-03   -177.39  0.0000E+00      0.00
  116.00     16.00      0.71  -999.99     0.71      0.0000     -0.00 LINEAR  3.6877E-03   -179.06  0.0000E+00      0.00
  120.00     16.00      0.37  -999.99     0.37      0.0000     -0.00 LINEAR  3.5473E-03    179.27  0.0000E+00      0.00
  124.00     16.00     -0.02  -999.99    -0.02      0.0000     -0.00 LINEAR  3.3897E-03    177.60  0.0000E+00      0.00
  128.00     16.00     -0.48  -999.99    -0.48      0.0000     -0.00 LINEAR  3.2159E-03    175.93  0.0000E+00      0.00
  132.00     16.00     -1.01  -999.99    -1.01      0.0000     -0.00 LINEAR  3.0269E-03    174.29  0.0000E+00      0.00
  136.00     16.00     -1.61  -999.99    -1.61      0.0000     -0.00 LINEAR  2.8238E-03    172.67  0.0000E+00      0.00
  140.00     16.00     -2.30  -999.99    -2.30      0.0000     -0.00 LINEAR  2.6078E-03    171.09  0.0000E+00      0.00
  144.00     16.00     -3.10  -999.99    -3.10      0.0000     -0.00 LINEAR  2.3801E-03    169.55  0.0000E+00      0.00
  148.00     16.00     -4.01  -999.99    -4.01      0.0000     -0.00 LINEAR  2.1418E-03    168.06  0.0000E+00      0.00
  152.00     16.00     -5.08  -999.99    -5.08      0.0000     -0.00 LINEAR  1.8943E-03    166.62  0.0000E+00      0.00
  156.00     16.00     -6.34  -999.99    -6.34      0.0000     -0.00 LINEAR  1.6386E-03    165.25  0.0000E+00      0.00
  160.00     16.00     -7.86  -999.99    -7.86      0.0000     -0.00 LINEAR  1.3760E-03    163.95  0.0000E+00      0.00
  164.00     16.00     -9.74  -999.99    -9.74      0.0000     -0.00 LINEAR  1.1076E-03    162.72  0.0000E+00      0.00
  168.00     16.00    -12.20  -999.99   -12.20      0.0000     -0.00 LINEAR  8.3470E-04    161.57  0.0000E+00      0.00
  172.00     16.00    -15.69  -999.99   -15.69      0.0000     -0.00 LINEAR  5.5836E-04    160.52  0.0000E+00      0.00
  176.00     16.00    -21.69  -999.99   -21.69      0.0000     -0.00 LINEAR  2.7975E-04    159.55  0.0000E+00      0.00
  180.00     16.00   -999.99  -999.99  -999.99      0.0000      0.00         4.0927E-14    -21.32  0.0000E+00      0.00
    0.00     20.00   -999.99  -999.99  -999.99      0.0000      0.00         0.0000E+00      0.00  0.0000E+00      0.00
    4.00     20.00    -21.68  -999.99   -21.68      0.0000     -0.00 LINEAR  2.8029E-04   -158.74  0.0000E+00      0.00
    8.00     20.00    -15.67  -999.99   -15.67      0.0000     -0.00 LINEAR  5.5944E-04   -158.09  0.0000E+00      0.00
   12.00     20.00    -12.18  -999.99   -12.18      0.0000     -0.00 LINEAR  8.3629E-04   -157.55  0.0000E+00      0.00
   16.00     20.00     -9.72  -999.99    -9.72      0.0000     -0.00 LINEAR  1.1097E-03   -157.13  0.0000E+00      0.00
   20.00     20.00     -7.84  -999.99    -7.84      0.0000     -0.00 LINEAR  1.3785E-03   -156.82  0.0000E+00      0.00
   24.00     20.00     -6.32  -999.99    -6.32      0.0000     -0.00 LINEAR  1.6415E-03   -156.62  0.0000E+00      0.00
   28.00     20.00     -5.06  -999.99    -5.06      0.0000     -0.00 LINEAR  1.8975E-03   -156.54  0.0000E+00      0.00
   32.00     20.00     -4.00  -999.99    -4.00      0.0000     -0.00 LINEAR  2.1453E-03   -156.57  0.0000E+00      0.00
   36.00     20.00     -3.08  -999.99    -3.08      0.0000     -0.00 LINEAR  2.3838E-03   -156.72  0.0000E+00      0.00
   40.00     20.00     -2.29  -999.99    -2.29      0.0000     -0.00 LINEAR  2.6117E-03   -156.99  0.0000E+00      0.00
   44.00     20.00     -1.60  -999.99    -1.60      0.0000     -0.00 LINEAR  2.8277E-03   -157.37  0.0000E+00      0.00
   48.00     20.00     -1.00  -999.99    -1.00      0.0000     -0.00 LINEAR  3.0308E-03   -157.86  0.0000E+00      0.00
   52.00     20.00     -0.47  -999.99    -0.47      0.0000     -0.00 LINEAR  3.2197E-03   -158.47  0.0000E+00      0.00
   56.00     20.00     -0.01  -999.99    -0.01      0.0000     -0.00 LINEAR  3.3934E-03   -159.18  0.0000E+00      0.00
   60.00     20.00      0.38  -999.99     0.38      0.0000     -0.00 LINEAR  3.5507E-03   -159.99  0.0000E+00      0.00
   64.00     20.00      0.71  -999.99     0.71      0.0000     -0.00 LINEAR  3.6908E-03   -160.91  0.0000E+00      0.00
   68.00     20.00      1.00  -999.99     1.00      0.0000     -0.00 LINEAR  3.8126E-03   -161.92  0.0000E+00      0.00
   72.00     20.00      1.23  -999.99     1.23      0.0000     -0.00 LINEAR  3.9154E-03   -163.02  0.0000E+00      0.00
   76.00     20.00      1.41  -999.99     1.41      0.0000     -0.00 LINEAR  3.9984E-03   -164.21  0.0000E+00      0.00
   80.00     20.00      1.55  -999.99     1.55      0.0000     -0.00 LINEAR  4.0611E-03   -165.47  0.0000E+00      0.00
   84.00     20.00      1.63  -999.99     1.63      0.0000     -0.00 LINEAR  4.1031E-03   -166.81  0.0000E+00      0.00
   88.00     20.00      1.68  -999.99     1.68      0.0000     -0.00 LINEAR  4.1240E-03   -168.22  0.0000E+00      0.00
   92.00     20.00      1.68  -999.99     1.68      0.0000     -0.00 LINEAR  4.1237E-03   -169.68  0.0000E+00      0.00
   96.00     20.00      1.63  -999.99     1.63      0.0000     -0.00 LINEAR  4.1022E-03   -171.20  0.0000E+00      0.00
  100.00     20.00      1.54  -999.99     1.54      0.0000     -0.00 LINEAR  4.0597E-03   -172.76  0.0000E+00      0.00
  104.00     20.00      1.41  -999.99     1.41      0.0000     -0.00 LINEAR  3.9965E-03   -174.36  0.0000E+00      0.00
  108.00     20.00      1.22  -999.99     1.22      0.0000     -0.00 LINEAR  3.9130E-03   -175.98  0.0000E+00      0.00
  112.00     20.00      0.99  -999.99     0.99      0.0000     -0.00 LINEAR  3.8098E-03   -177.63  0.0000E+00      0.00
  116.00     20.00      0.71  -999.99     0.71      0.0000     -0.00 LINEAR  3.6877E-03   -179.29  0.0000E+00      0.00
  120.00     20.00      0.37  -999.99     0.37      0.0000     -0.00 LINEAR  3.5473E-03    179.04  0.0000E+00      0.00
  124.00     20.00     -0.02  -999.99    -0.02      0.0000     -0.00 LINEAR  3.3897E-03    177.38  0.0000E+00      0.00
  128.00     20.00     -0.48  -999.99    -0.48      0.0000     -0.00 LINEAR  3.2159E-03    175.73  0.0000E+00      0.00
  132.00     20.00     -1.01  -999.99    -1.01      0.0000     -0.00 LINEAR  3.0269E-03    174.09  0.0000E+00      0.00
  136.00     20.00     -1.61  -999.99    -1.61      0.0000     -0.00 LINEAR  2.8238E-03    172.49  0.0000E+00      0.00
  140.00     20.00     -2.30  -999.99    -2.30      0.0000     -0.00 LINEAR  2.6078E-03    170.92  0.0000E+00      0.00
  144.00     20.00     -3.10  -999.99    -3.10      0.0000     -0.00 LINEAR  2.3801E-03    169.39  0.0000E+00      0.00
  148.00     20.00     -4.01  -999.99    -4.01      0.0000     -0.00 LINEAR  2.1418E-03    167.92  0.0000E+00      0.00
  152.00     20.00     -5.08  -999.99    -5.08      0.0000     -0.00 LINEAR  1.8943E-03    166.50  0.0000E+00      0.00
  156.00     20.00     -6.34  -999.99    -6.34      0.0000     -0.00 LINEAR  1.6386E-03    165.14  0.0000E+00      0.00
  160.00     20.00     -7.86  -999.99    -7.86      0.0000     -0.00 LINEAR  1.3760E-03    163.86  0.0000E+00      0.00
  164.00     20.00     -9.74  -999.99    -9.74      0.0000     -0.00 LINEAR  1.1076E-03    162.65  0.0000E+00      0.00
  168.00     20.00    -12.20  -999.99   -12.20      0.0000     -0.00 LINEAR  8.3470E-04    161.52  0.0000E+00      0.00
  172.00     20.00    -15.69  -999.99   -15.69      0.0000     -0.00 LINEAR  5.5836E-04    160.48  0.0000E+00      0.00
  176.00     20.00    -21.69  -999.99   -21.69      0.0000     -0.00 LINEAR  2.7975E-04    159.53  0.0000E+00      0.00
  180.00     20.00   -999.99  -999.99  -999.99      0.0000      0.00         4.0927E-14    -21.32  0.0000E+00      0.00
    0.00     24.00   -999.99  -999.99  -999.99      0.0000      0.00         0.0000E+00      0.00  0.0000E+00      0.00
    4.00     24.00    -21.68  -999.99   -21.68      0.0000     -0.00 LINEAR  2.8029E-04   -158.76  0.0000E+00      0.00
    8.00     24.00    -15.67  -999.99   -15.67      0.0000     -0.00 LINEAR  5.5944E-04   -158.14  0.0000E+00      0.00
   12.00     24.00    -12.18  -999.99   -12.18      0.0000     -0.00 LINEAR  8.3629E-04   -157.62  0.0000E+00      0.00
   16.00     24.00     -9.72  -999.99    -9.72      0.0000     -0.00 LINEAR  1.1097E-03   -157.22  0.0000E+00      0.00
   20.00     24.00     -7.84  -999.99    -7.84      0.0000     -0.00 LINEAR  1.3785E-03   -156.93  0.0000E+00      0.00
   24.00     24.00     -6.32  -999.99    -6.32      0.0000     -0.00 LINEAR  1.6415E-03   -156.75  0.0000E+00      0.00
   28.00     24.00     -5.06  -999.99    -5.06      0.0000     -0.00 LINEAR  1.8975E-03   -156.69  0.0000E+00      0.00
   32.00     24.00     -4.00  -999.99    -4.00      0.0000     -0.00 LINEAR  2.1453E-03   -156.74  0.0000E+00      0.00
   36.00     24.00     -3.08  -999.99    -3.08      0.0000     -0.00 LINEAR  2.3838E-03   -156.91  0.0000E+00      0.00
   40.00     24.00     -2.29  -999.99    -2.29      0.0000     -0.00 LINEAR  2.6117E-03   -157.19  0.0000E+00      0.00
   44.00     24.00     -1.60  -999.99    -1.60      0.0000     -0.00 LINEAR  2.8277E-03   -157.59  0.0000E+00      0.00
   48.00     24.00     -1.00  -999.99    -1.00      0.0000     -0.00 LINEAR  3.0308E-03   -158.10  0.0000E+00      0.00
   52.00     24.00     -0.47  -999.99    -0.47      0.0000     -0.00 LINEAR  3.2197E-03   -158.72  0.0000E+00      0.00
   56.00     24.00     -0.01  -999.99    -0.01      0.0000     -0.00 LINEAR  3.3934E-03   -159.44  0.0000E+00      0.00
   60.00     24.00      0.38  -999.99     0.38      0.0000     -0.00 LINEAR  3.5507E-03   -160.27  0.0000E+00      0.00
   64.00     24.00      0.71  -999.99     0.71      0.0000     -0.00 LINEAR  3.6908E-03   -161.19  0.0000E+00      0.00
   68.00     24.00      1.00  -999.99     1.00      0.0000     -0.00 LINEAR  3.8126E-03   -162.21  0.0000E+00      0.00
   72.00     24.00      1.23  -999.99     1.23      0.0000     -0.00 LINEAR  3.9154E-03   -163.32  0.0000E+00      0.00
   76.00     24.00      1.41  -999.99     1.41      0.0000     -0.00 LINEAR  3.9984E-03   -164.51  0.0000E+00      0.00
   80.00     24.00      1.55  -999.99     1.55      0.0000     -0.00 LINEAR  4.0611E-03   -165.79  0.0000E+00      0.00
   84.00     24.00      1.63  -999.99     1.63      0.0000     -0.00 LINEAR  4.1031E-03   -167.13  0.0000E+00      0.00
   88.00     24.00      1.68  -999.99     1.68      0.0000     -0.00 LINEAR  4.1240E-03   -168.53  0.0000E+00      0.00
   92.00     24.00      1.68  -999.99     1.68      0.0000     -0.00 LINEAR  4.1237E-03   -170.00  0.0000E+00      0.00
   96.00     24.00      1.63  -999.99     1.63      0.0000     -0.00 LINEAR  4.1022E-03   -171.51  0.0000E+00      0.00
  100.00     24.00      1.54  -999.99     1.54      0.0000     -0.00 LINEAR  4.0597E-03   -173.07  0.0000E+00      0.00
  104.00     24.00      1.41  -999.99     1.41      0.0000     -0.00 LINEAR  3.9965E-03   -174.67  0.0000E+00      0.00
  108.00     24.00      1.22  -999.99     1.22      0.0000     -0.00 LINEAR  3.9130E-03   -176.29  0.0000E+00      0.00
  112.00     24.00      0.99  -999.99     0.99      0.0000     -0.00 LINEAR  3.8098E-03   -177.93  0.0000E+00      0.00
  116.00     24.00      0.71  -999.99     0.71      0.0000     -0.00 LINEAR  3.6877E-03   -179.58  0.0000E+00      0.00
  120.00     24.00      0.37  -999.99     0.37      0.0000     -0.00 LINEAR  3.5473E-03    178.76  0.0000E+00      0.00
  124.00     24.00     -0.02  -999.99    -0.02      0.0000     -0.00 LINEAR  3.3897E-03    177.11  0.0000E+00      0.00
  128.00     24.00     -0.48  -999.99    -0.48      0.0000     -0.00 LINEAR  3.2159E-03    175.48  0.0000E+00      0.00
  132.00     24.00     -1.01  -999.99    -1.01      0.0000     -0.00 LINEAR  3.0269E-03    173.86  0.0000E+00      0.00
  136.00     24.00     -1.61  -999.99    -1.61      0.0000     -0.00 LINEAR  2.8238E-03    172.27  0.0000E+00      0.00
  140.00     24.00     -2.30  -999.99    -2.30      0.0000     -0.00 LINEAR  2.6078E-03    170.72  0.0000E+00      0.00
  144.00     24.00     -3.10  -999.99    -3.10      0.0000     -0.00 LINEAR  2.3801E-03    169.21  0.0000E+00      0.00
  148.00     24.00     -4.01  -999.99    -4.01      0.0000     -0.00 LINEAR  2.1418E-03    167.75  0.0000E+00      0.00
  152.00     24.00     -5.08  -999.99    -5.08      0.0000     -0.00 LINEAR  1.8943E-03    166.35  0.0000E+00      0.00
  156.00     24.00     -6.34  -999.99    -6.34      0.0000     -0.00 LINEAR  1.6386E-03    165.01  0.0000E+00      0.00
  160.00     24.00     -7.86  -999.99    -7.86      0.0000     -0.00 LINEAR  1.3760E-03    163.75  0.0000E+00      0.00
  164.00     24.00     -9.74  -999.99    -9.74      0.0000     -0.00 LINEAR  1.1076E-03    162.56  0.0000E+00      0.00
  168.00     24.00    -12.20  -999.99   -12.20      0.0000     -0.00 LINEAR  8.3470E-04    161.45  0.0000E+00      0.00
  172.00     24.00    -15.69  -999.99   -15.69      0.0000     -0.00 LINEAR  5.5836E-04    160.43  0.0000E+00      0.00
  176.00     24.00    -21.69  -999.99   -21.69      0.0000     -0.00 LINEAR  2.7975E-04    159.51  0.0000E+00      0.00
  180.00     24.00   -999.99  -999.99  -999.99      0.0000      0.00         4.0927E-14    -21.32  0.0000E+00      0.00
    0.00     28.00   -999.99  -999.99  -999.99      0.0000      0.00         0.0000E+00      0.00  0.0000E+00      0.00
    4.00     28.00    -21.68  -999.99   -21.68      0.0000     -0.00 LINEAR  2.8029E-04   -158.78  0.0000E+00      0.00
    8.00     28.00    -15.67  -999.99   -15.67      0.0000     -0.00 LINEAR  5.5944E-04   -158.19  0.0000E+00      0.00
   12.00     28.00    -12.18  -999.99   -12.18      0.0000     -0.00 LINEAR  8.3629E-04   -157.70  0.0000E+00      0.00
   16.00     28.00     -9.72  -999.99    -9.72      0.0000     -0.00 LINEAR  1.1097E-03   -157.32  0.0000E+00      0.00
   20.00     28.00     -7.84  -999.99    -7.84      0.0000     -0.00 LINEAR  1.3785E-03   -157.05  0.0000E+00      0.00
   24.00     28.00     -6.32  -999.99    -6.32      0.0000     -0.00 LINEAR  1.6415E-03   -156.90  0.0000E+00      0.00
   28.00     28.00     -5.06  -999.99    -5.06      0.0000     -0.00 LINEAR  1.8975E-03   -156.86  0.0000E+00      0.00
   32.00     28.00     -4.00  -999.99    -4.00      0.0000     -0.00 LINEAR  2.1453E-03   -156.94  0.0000E+00      0.00
   36.00     28.00     -3.08  -999.99    -3.08      0.0000     -0.00 LINEAR  2.3838E-03   -157.13  0.0000E+00      0.00
   40.00     28.00     -2.29  -999.99    -2.29      0.0000     -0.00 LINEAR  2.6117E-03   -157.43  0.0000E+00      0.00
   44.00     28.00     -1.60  -999.99    -1.60      0.0000     -0.00 LINEAR  2.8277E-03   -157.85  0.0000E+00      0.00
   48.00     28.00     -1.00  -999.99    -1.00      0.0000     -0.00 LINEAR  3.0308E-03   -158.38  0.0000E+00      0.00
   52.00     28.00     -0.47  -999.99    -0.47      0.0000     -0.00 LINEAR  3.2197E-03   -159.01  0.0000E+00      0.00
   56.00     28.00     -0.01  -999.99    -0.01      0.0000     -0.00 LINEAR  3.3934E-03   -159.75  0.0000E+00      0.00
   60.00     28.00      0.38  -999.99     0.38      0.0000     -0.00 LINEAR  3.5507E-03   -160.59  0.0000E+00      0.00
   64.00     28.00      0.71  -999.99     0.71      0.0000     -0.00 LINEAR  3.6908E-03   -161.53  0.0000E+00      0.00
   68.00     28.00      1.00  -999.99     1.00      0.0000     -0.00 LINEAR  3.8126E-03   -162.56  0.0000E+00      0.00
   72.00     28.00      1.23  -999.99     1.23      0.0000     -0.00 LINEAR  3.9154E-03   -163.68  0.0000E+00      0.00
   76.00     28.00      1.41  -999.99     1.41      0.0000     -0.00 LINEAR  3.9984E-03   -164.88  0.0000E+00      0.00
   80.00     28.00      1.55  -999.99     1.55      0.0000     -0.00 LINEAR  4.0611E-03   -166.15  0.0000E+00      0.00
   84.00     28.00      1.63  -999.99     1.63      0.0000     -0.00 LINEAR  4.1031E-03   -167.50  0.0000E+00      0.00
   88.00     28.00      1.68  -999.99     1.68      0.0000     -0.00 LINEAR  4.1240E-03   -168.91  0.0000E+00      0.00
   92.00     28.00      1.68  -999.99     1.68      0.0000     -0.00 LINEAR  4.1237E-03   -170.37  0.0000E+00      0.00
   96.00     28.00      1.63  -999.99     1.63      0.0000     -0.00 LINEAR  4.1022E-03   -171.89  0.0000E+00      0.00
  100.00     28.00      1.54  -999.99     1.54      0.0000     -0.00 LINEAR  4.0597E-03   -173.44  0.0000E+00      0.00
  104.00     28.00      1.41  -999.99     1.41      0.0000     -0.00 LINEAR  3.9965E-03   -175.03  0.0000E+00      0.00
  108.00     28.00      1.22  -999.99     1.22      0.0000     -0.00 LINEAR  3.9130E-03   -176.64  0.0000E+00      0.00
  112.00     28.00      0.99  -999.99     0.99      0.0000     -0.00 LINEAR  3.8098E-03   -178.27  0.0000E+00      0.00
  116.00     28.00      0.71  -999.99     0.71      0.0000     -0.00 LINEAR  3.6877E-03   -179.92  0.0000E+00      0.00
  120.00     28.00      0.37  -999.99     0.37      0.0000     -0.00 LINEAR  3.5473E-03    178.44  0.0000E+00      0.00
  124.00     28.00     -0.02  -999.99    -0.02      0.0000     -0.00 LINEAR  3.3897E-03    176.80  0.0000E+00      0.00
  128.00     28.00     -0.48  -999.99    -0.48      0.0000     -0.00 LINEAR  3.2159E-03    175.18  0.0000E+00      0.00
  132.00     28.00     -1.01  -999.99    -1.01      0.0000     -0.00 LINEAR  3.0269E-03    173.58  0.0000E+00      0.00
  136.00     28.00     -1.61  -999.99    -1.61      0.0000     -0.00 LINEAR  2.8238E-03    172.01  0.0000E+00      0.00
  140.00     28.00     -2.30  -999.99    -2.30      0.0000     -0.00 LINEAR  2.6078E-03    170.48  0.0000E+00      0.00
  144.00     28.00     -3.10  -999.99    -3.10      0.0000     -0.00 LINEAR  2.3801E-03    168.99  0.0000E+00      0.00
  148.00     28.00     -4.01  -999.99    -4.01      0.0000     -0.00 LINEAR  2.1418E-03    167.55  0.0000E+00      0.00
  152.00     28.00     -5.08  -999.99    -5.08      0.0000     -0.00 LINEAR  1.8943E-03    166.17  0.0000E+00      0.00
  156.00     28.00     -6.34  -999.99    -6.34      0.0000     -0.00 LINEAR  1.6386E-03    164.86  0.0000E+00      0.00
  160.00     28.00     -7.86  -999.99    -7.86      0.0000     -0.00 LINEAR  1.3760E-03    163.62  0.0000E+00      0.00
  164.00     28.00     -9.74  -999.99    -9.74      0.0000     -0.00 LINEAR  1.1076E-03    162.46  0.0000E+00      0.00
  168.00     28.00    -12.20  -999.99   -12.20      0.0000     -0.00 LINEAR  8.3470E-04    161.37  0.0000E+00      0.00
  172.00     28.00    -15.69  -999.99   -15.69      0.0000     -0.00 LINEAR  5.5836E-04    160.38  0.0000E+00      0.00
  176.00     28.00    -21.69  -999.99   -21.69      0.0000     -0.00 LINEAR  2.7975E-04    159.48  0.0000E+00      0.00
  180.00     28.00   -999.99  -999.99  -999.99      0.0000      0.00         4.0927E-14    -21.32  0.0000E+00      0.00
    0.00     32.00   -999.99  -999.99  -999.99      0.0000      0.00         0.0000E+00      0.00  0.0000E+00      0.00
    4.00     32.00    -21.68  -999.99   -21.68      0.0000     -0.00 LINEAR  2.8029E-04   -158.81  0.0000E+00      0.00
    8.00     32.00    -15.67  -999.99   -15.67      0.0000     -0.00 LINEAR  5.5944E-04   -158.25  0.0000E+00      0.00
   12.00     32.00    -12.18  -999.99   -12.18      0.0000     -0.00 LINEAR  8.3629E-04   -157.79  0.0000E+00      0.00
   16.00     32.00     -9.72  -999.99    -9.72      0.0000     -0.00 LINEAR  1.1097E-03   -157.44  0.0000E+00      0.00
   20.00     32.00     -7.84  -999.99    -7.84      0.0000     -0.00 LINEAR  1.3785E-03   -157.20  0.0000E+00      0.00
   24.00     32.00     -6.32  -999.99    -6.32      0.0000     -0.00 LINEAR  1.6415E-03   -157.07  0.0000E+00      0.00
   28.00     32.00     -5.06  -999.99    -5.06      0.0000     -0.00 LINEAR  1.8975E-03   -157.06  0.0000E+00      0.00
   32.00     32.00     -4.00  -999.99    -4.00      0.0000     -0.00 LINEAR  2.1453E-03   -157.16  0.0000E+00      0.00
   36.00     32.00     -3.08  -999.99    -3.08      0.0000     -0.00 LINEAR  2.3838E-03   -157.38  0.0000E+00      0.00
   40.00     32.00     -2.29  -999.99    -2.29      0.0000     -0.00 LINEAR  2.6117E-03   -157.71  0.0000E+00      0.00
   44.00     32.00     -1.60  -999.99    -1.60      0.0000     -0.00 LINEAR  2.8277E-03   -158.15  0.0000E+00      0.00
   48.00     32.00     -1.00  -999.99    -1.00      0.0000     -0.00 LINEAR  3.0308E-03   -158.69  0.0000E+00      0.00
   52.00     32.00     -0.47  -999.99    -0.47      0.0000     -0.00 LINEAR  3.2197E-03   -159.35  0.0000E+00      0.00
   56.00     32.00     -0.01  -999.99    -0.01      0.0000     -0.00 LINEAR  3.3934E-03   -160.10  0.0000E+00      0.00
   60.00     32.00      0.38  -999.99     0.38      0.0000     -0.00 LINEAR  3.5507E-03   -160.96  0.0000E+00      0.00
   64.00     32.00      0.71  -999.99     0.71      0.0000     -0.00 LINEAR  3.6908E-03   -161.91  0.0000E+00      0.00
   68.00     32.00      1.00  -999.99     1.00      0.0000     -0.00 LINEAR  3.8126E-03   -162.95  0.0000E+00      0.00
   72.00     32.00      1.23  -999.99     1.23      0.0000     -0.00 LINEAR  3.9154E-03   -164.08  0.0000E+00      0.00
   76.00     32.00      1.41  -999.99     1.41      0.0000     -0.00 LINEAR  3.9984E-03   -165.29  0.0000E+00      0.00
   80.00     32.00      1.55  -999.99     1.55      0.0000     -0.00 LINEAR  4.0611E-03   -166.57  0.0000E+00      0.00
   84.00     32.00      1.63  -999.99     1.63      0.0000     -0.00 LINEAR  4.1031E-03   -167.92  0.0000E+00      0.00
   88.00     32.00      1.68  -999.99     1.68      0.0000     -0.00 LINEAR  4.1240E-03   -169.33  0.0000E+00      0.00
   92.00     32.00      1.68  -999.99     1.68      0.0000     -0.00 LINEAR  4.1237E-03   -170.80  0.0000E+00      0.00
   96.00     32.00      1.63  -999.99     1.63      0.0000     -0.00 LINEAR  4.1022E-03   -172.31  0.0000E+00      0.00
  100.00     32.00      1.54  -999.99     1.54      0.0000     -0.00 LINEAR  4.0597E-03   -173.86  0.0000E+00      0.00
  104.00     32.00      1.41  -999.99     1.41      0.0000     -0.00 LINEAR  3.9965E-03   -175.44  0.0000E+00      0.00
  108.00     32.00      1.22  -999.99     1.22      0.0000     -0.00 LINEAR  3.9130E-03   -177.05  0.0000E+00      0.00
  112.00     32.00      0.99  -999.99     0.99      0.0000     -0.00 LINEAR  3.8098E-03   -178.67  0.0000E+00      0.00
  116.00     32.00      0.71  -999.99     0.71      0.0000     -0.00 LINEAR  3.6877E-03    179.70  0.0000E+00      0.00
  120.00     32.00      0.37  -999.99     0.37      0.0000     -0.00 LINEAR  3.5473E-03    178.07  0.0000E+00      0.00
  124.00     32.00     -0.02  -999.99    -0.02      0.0000     -0.00 LINEAR  3.3897E-03    176.45  0.0000E+00      0.00
  128.00     32.00     -0.48  -999.99    -0.48      0.0000     -0.00 LINEAR  3.2159E-03    174.85  0.0000E+00      0.00
  132.00     32.00     -1.01  -999.99    -1.01      0.0000     -0.00 LINEAR  3.0269E-03    173.26  0.0000E+00      0.00
  136.00     32.00     -1.61  -999.99    -1.61      0.0000     -0.00 LINEAR  2.8238E-03    171.71  0.0000E+00      0.00
  140.00     32.00     -2.30  -999.99    -2.30      0.0000     -0.00 LINEAR  2.6078E-03    170.20  0.0000E+00      0.00
  144.00     32.00     -3.10  -999.99    -3.10      0.0000     -0.00 LINEAR  2.3801E-03    168.74  0.0000E+00      0.00
  148.00     32.00     -4.01  -999.99    -4.01      0.0000     -0.00 LINEAR  2.1418E-03    167.32  0.0000E+00      0.00
  152.00     32.00     -5.08  -999.99    -5.08      0.0000     -0.00 LINEAR  1.8943E-03    165.97  0.0000E+00      0.00
  156.00     32.00     -6.34  -999.99    -6.34      0.0000     -0.00 LINEAR  1.6386E-03    164.69  0.0000E+00      0.00
  160.00     32.00     -7.86  -999.99    -7.86      0.0000     -0.00 LINEAR  1.3760E-03    163.47  0.0000E+00      0.00
  164.00     32.00     -9.74  -999.99    -9.74      0.0000     -0.00 LINEAR  1.1076E-03    162.34  0.0000E+00      0.00
  168.00     32.00    -12.20  -999.99   -12.20      0.0000     -0.00 LINEAR  8.3470E-04    161.29  0.0000E+00      0.00
  172.00     32.00    -15.69  -999.99   -15.69      0.0000     -0.00 LINEAR  5.5836E-04    160.32  0.0000E+00      0.00
  176.00     32.00    -21.69  -999.99   -21.69      0.0000     -0.00 LINEAR  2.7975E-04    159.45  0.0000E+00      0.00
  180.00     32.00   -999.99  -999.99  -999.99      0.0000      0.00         4.0927E-14    -21.32  0.0000E+00      0.00
    0.00     36.00   -999.99  -999.99  -999.99      0.0000      0.00         0.0000E+00      0.00  0.0000E+00      0.00
    4.00     36.00    -21.68  -999.99   -21.68      0.0000     -0.00 LINEAR  2.8029E-04   -158.85  0.0000E+00      0.00
    8.00     36.00    -15.67  -999.99   -15.67      0.0000     -0.00 LINEAR  5.5944E-04   -158.31  0.0000E+00      0.00
   12.00     36.00    -12.18  -999.99   -12.18      0.0000     -0.00 LINEAR  8.3629E-04   -157.89  0.0000E+00      0.00
   16.00     36.00     -9.72  -999.99    -9.72      0.0000     -0.00 LINEAR  1.1097E-03   -157.57  0.0000E+00      0.00
   20.00     36.00     -7.84  -999.99    -7.84      0.0000     -0.00 LINEAR  1.3785E-03   -157.36  0.0000E+00      0.00
   24.00     36.00     -6.32  -999.99    -6.32      0.0000     -0.00 LINEAR  1.6415E-03   -157.27  0.0000E+00      0.00
   28.00     36.00     -5.06  -999.99    -5.06      0.0000     -0.00 LINEAR  1.8975E-03   -157.29  0.0000E+00      0.00
   32.00     36.00     -4.00  -999.99    -4.00      0.0000     -0.00 LINEAR  2.1453E-03   -157.42  0.0000E+00      0.00
   36.00     36.00     -3.08  -999.99    -3.08      0.0000     -0.00 LINEAR  2.3838E-03   -157.66  0.0000E+00      0.00
   40.00     36.00     -2.29  -999.99    -2.29      0.0000     -0.00 LINEAR  2.6117E-03   -158.01  0.0000E+00      0.00
   44.00     36.00     -1.60  -999.99    -1.60      0.0000     -0.00 LINEAR  2.8277E-03   -158.48  0.0000E+00      0.00
   48.00     36.00     -1.00  -999.99    -1.00      0.0000     -0.00 LINEAR  3.0308E-03   -159.05  0.0000E+00      0.00
   52.00     36.00     -0.47  -999.99    -0.47      0.0000     -0.00 LINEAR  3.2197E-03   -159.72  0.0000E+00      0.00
   56.00     36.00     -0.01  -999.99    -0.01      0.0000     -0.00 LINEAR  3.3934E-03   -160.50  0.0000E+00      0.00
   60.00     36.00      0.38  -999.99     0.38      0.0000     -0.00 LINEAR  3.5507E-03   -161.37  0.0000E+00      0.00
   64.00     36.00      0.71  -999.99     0.71      0.0000     -0.00 LINEAR  3.6908E-03   -162.34  0.0000E+00      0.00
   68.00     36.00      1.00  -999.99     1.00      0.0000     -0.00 LINEAR  3.8126E-03   -163.40  0.0000E+00      0.00
   72.00     36.00      1.23  -999.99     1.23      0.0000     -0.00 LINEAR  3.9154E-03   -164.53  0.0000E+00      0.00
   76.00     36.00      1.41  -999.99     1.41      0.0000     -0.00 LINEAR  3.9984E-03   -165.75  0.0000E+00      0.00
   80.00     36.00      1.55  -999.99     1.55      0.0000     -0.00 LINEAR  4.0611E-03   -167.04  0.0000E+00      0.00
   84.00     36.00      1.63  -999.99     1.63      0.0000     -0.00 LINEAR  4.1031E-03   -168.40  0.0000E+00      0.00
   88.00     36.00      1.68  -999.99     1.68      0.0000     -0.00 LINEAR  4.1240E-03   -169.81  0.0000E+00      0.00
   92.00     36.00      1.68  -999.99     1.68      0.0000     -0.00 LINEAR  4.1237E-03   -171.27  0.0000E+00      0.00
   96.00     36.00      1.63  -999.99     1.63      0.0000     -0.00 LINEAR  4.1022E-03   -172.78  0.0000E+00      0.00
  100.00     36.00      1.54  -999.99     1.54      0.0000     -0.00 LINEAR  4.0597E-03   -174.33  0.0000E+00      0.00
  104.00     36.00      1.41  -999.99     1.41      0.0000     -0.00 LINEAR  3.9965E-03   -175.90  0.0000E+00      0.00
  108.00     36.00      1.22  -999.99     1.22      0.0000     -0.00 LINEAR  3.9130E-03   -177.50  0.0000E+00      0.00
  112.00     36.00      0.99  -999.99     0.99      0.0000     -0.00 LINEAR  3.8098E-03   -179.11  0.0000E+00      0.00
  116.00     36.00      0.71  -999.99     0.71      0.0000     -0.00 LINEAR  3.6877E-03    179.27  0.0000E+00      0.00
  120.00     36.00      0.37  -999.99     0.37      0.0000     -0.00 LINEAR  3.5473E-03    177.66  0.0000E+00      0.00
  124.00     36.00     -0.02  -999.99    -0.02      0.0000     -0.00 LINEAR  3.3897E-03    176.06  0.0000E+00      0.00
  128.00     36.00     -0.48  -999.99    -0.48      0.0000     -0.00 LINEAR  3.2159E-03    174.47  0.0000E+00      0.00
  132.00     36.00     -1.01  -999.99    -1.01      0.0000     -0.00 LINEAR  3.0269E-03    172.91  0.0000E+00      0.00
  136.00     36.00     -1.61  -999.99    -1.61      0.0000     -0.00 LINEAR  2.8238E-03    171.38  0.0000E+00      0.00
  140.00     36.00     -2.30  -999.99    -2.30      0.0000     -0.00 LINEAR  2.6078E-03    169.90  0.0000E+00      0.00
  144.00     36.00     -3.10  -999.99    -3.10      0.0000     -0.00 LINEAR  2.3801E-03    168.46  0.0000E+00      0.00
  148.00     36.00     -4.01  -999.99    -4.01      0.0000     -0.00 LINEAR  2.1418E-03    167.07  0.0000E+00      0.00
  152.00     36.00     -5.08  -999.99    -5.08      0.0000     -0.00 LINEAR  1.8943E-03    165.75  0.0000E+00      0.00
  156.00     36.00     -6.34  -999.99    -6.34      0.0000     -0.00 LINEAR  1.6386E-03    164.49  0.0000E+00      0.00
  160.00     36.00     -7.86  -999.99    -7.86      0.0000     -0.00 LINEAR  1.3760E-03    163.31  0.0000E+00      0.00
  164.00     36.00     -9.74  -999.99    -9.74      0.0000     -0.00 LINEAR  1.1076E-03    162.21  0.0000E+00      0.00
  168.00     36.00    -12.20  -999.99   -12.20      0.0000     -0.00 LINEAR  8.3470E-04    161.19  0.0000E+00      0.00
  172.00     36.00    -15.69  -999.99   -15.69      0.0000     -0.00 LINEAR  5.5836E-04    160.26  0.0000E+00      0.00
  176.00     36.00    -21.69  -999.99   -21.69      0.0000     -0.00 LINEAR  2.7975E-04    159.42  0.0000E+00      0.00
  180.00     36.00   -999.99  -999.99  -999.99      0.0000      0.00         4.0927E-14    -21.32  0.0000E+00      0.00
    0.00     40.00   -999.99  -999.99  -999.99      0.0000      0.00         0.0000E+00      0.00  0.0000E+00      0.00
    4.00     40.00    -21.68  -999.99   -21.68      0.0000     -0.00 LINEAR  2.8029E-04   -158.88  0.0000E+00      0.00
    8.00     40.00    -15.67  -999.99   -15.67      0.0000     -0.00 LINEAR  5.5944E-04   -158.39  0.0000E+00      0.00
   12.00     40.00    -12.18  -999.99   -12.18      0.0000     -0.00 LINEAR  8.3629E-04   -158.00  0.0000E+00      0.00
   16.00     40.00     -9.72  -999.99    -9.72      0.0000     -0.00 LINEAR  1.1097E-03   -157.71  0.0000E+00      0.00
   20.00     40.00     -7.84  -999.99    -7.84      0.0000     -0.00 LINEAR  1.3785E-03   -157.54  0.0000E+00      0.00
   24.00     40.00     -6.32  -999.99    -6.32      0.0000     -0.00 LINEAR  1.6415E-03   -157.48  0.0000E+00      0.00
   28.00     40.00     -5.06  -999.99    -5.06      0.0000     -0.00 LINEAR  1.8975E-03   -157.53  0.0000E+00      0.00
   32.00     40.00     -4.00  -999.99    -4.00      0.0000     -0.00 LINEAR  2.1453E-03   -157.69  0.0000E+00      0.00
   36.00     40.00     -3.08  -999.99    -3.08      0.0000     -0.00 LINEAR  2.3838E-03   -157.97  0.0000E+00      0.00
   40.00     40.00     -2.29  -999.99    -2.29      0.0000     -0.00 LINEAR  2.6117E-03   -158.35  0.0000E+00      0.00
   44.00     40.00     -1.60  -999.99    -1.60      0.0000     -0.00 LINEAR  2.8277E-03   -158.84  0.0000E+00      0.00
   48.00     40.00     -1.00  -999.99    -1.00      0.0000     -0.00 LINEAR  3.0308E-03   -159.44  0.0000E+00      0.00
   52.00     40.00     -0.47  -999.99    -0.47      0.0000     -0.00 LINEAR  3.2197E-03   -160.14  0.0000E+00      0.00
   56.00     40.00     -0.01  -999.99    -0.01      0.0000     -0.00 LINEAR  3.3934E-03   -160.93  0.0000E+00      0.00
   60.00     40.00      0.38  -999.99     0.38      0.0000     -0.00 LINEAR  3.5507E-03   -161.83  0.0000E+00      0.00
   64.00     40.00      0.71  -999.99     0.71      0.0000     -0.00 LINEAR  3.6908E-03   -162.81  0.0000E+00      0.00
   68.00     40.00      1.00  -999.99     1.00      0.0000     -0.00 LINEAR  3.8126E-03   -163.88  0.0000E+00      0.00
   72.00     40.00      1.23  -999.99     1.23      0.0000     -0.00 LINEAR  3.9154E-03   -165.03  0.0000E+00      0.00
   76.00     40.00      1.41  -999.99     1.41      0.0000     -0.00 LINEAR  3.9984E-03   -166.26  0.0000E+00      0.00
   80.00     40.00      1.55  -999.99     1.55      0.0000     -0.00 LINEAR  4.0611E-03   -167.56  0.0000E+00      0.00
   84.00     40.00      1.63  -999.99     1.63      0.0000     -0.00 LINEAR  4.1031E-03   -168.92  0.0000E+00      0.00
   88.00     40.00      1.68  -999.99     1.68      0.0000     -0.00 LINEAR  4.1240E-03   -170.33  0.0000E+00      0.00
   92.00     40.00      1.68  -999.99     1.68      0.0000     -0.00 LINEAR  4.1237E-03   -171.80  0.0000E+00      0.00
   96.00     40.00      1.63  -999.99     1.63      0.0000     -0.00 LINEAR  4.1022E-03   -173.30  0.0000E+00      0.00
  100.00     40.00      1.54  -999.99     1.54      0.0000     -0.00 LINEAR  4.0597E-03   -174.84  0.0000E+00      0.00
  104.00     40.00      1.41  -999.99     1.41      0.0000     -0.00 LINEAR  3.9965E-03   -176.41  0.0000E+00      0.00
  108.00     40.00      1.22  -999.99     1.22      0.0000     -0.00 LINEAR  3.9130E-03   -178.00  0.0000E+00      0.00
  112.00     40.00      0.99  -999.99     0.99      0.0000     -0.00 LINEAR  3.8098E-03   -179.60  0.0000E+00      0.00
  116.00     40.00      0.71  -999.99     0.71      0.0000     -0.00 LINEAR  3.6877E-03    178.80  0.0000E+00      0.00
  120.00     40.00      0.37  -999.99     0.37      0.0000     -0.00 LINEAR  3.5473E-03    177.21  0.0000E+00      0.00
  124.00     40.00     -0.02  -999.99    -0.02      0.0000     -0.00 LINEAR  3.3897E-03    175.62  0.0000E+00      0.00
  128.00     40.00     -0.48  -999.99    -0.48      0.0000     -0.00 LINEAR  3.2159E-03    174.06  0.0000E+00      0.00
  132.00     40.00     -1.01  -999.99    -1.01      0.0000     -0.00 LINEAR  3.0269E-03    172.52  0.0000E+00      0.00
  136.00     40.00     -1.61  -999.99    -1.61      0.0000     -0.00 LINEAR  2.8238E-03    171.02  0.0000E+00      0.00
  140.00     40.00     -2.30  -999.99    -2.30      0.0000     -0.00 LINEAR  2.6078E-03    169.56  0.0000E+00      0.00
  144.00     40.00     -3.10  -999.99    -3.10      0.0000     -0.00 LINEAR  2.3801E-03    168.15  0.0000E+00      0.00
  148.00     40.00     -4.01  -999.99    -4.01      0.0000     -0.00 LINEAR  2.1418E-03    166.79  0.0000E+00      0.00
  152.00     40.00     -5.08  -999.99    -5.08      0.0000     -0.00 LINEAR  1.8943E-03    165.50  0.0000E+00      0.00
  156.00     40.00     -6.34  -999.99    -6.34      0.0000     -0.00 LINEAR  1.6386E-03    164.28  0.0000E+00      0.00
  160.00     40.00     -7.86  -999.99    -7.86      0.0000     -0.00 LINEAR  1.3760E-03    163.13  0.0000E+00      0.00
  164.00     40.00     -9.74  -999.99    -9.74      0.0000     -0.00 LINEAR  1.1076E-03    162.06  0.0000E+00      0.00
  168.00     40.00    -12.20  -999.99   -12.20      0.0000     -0.00 LINEAR  8.3470E-04    161.08  0.0000E+00      0.00
  172.00     40.00    -15.69  -999.99   -15.69      0.0000     -0.00 LINEAR  5.5836E-04    160.18  0.0000E+00      0.00
  176.00     40.00    -21.69  -999.99   -21.69      0.0000     -0.00 LINEAR  2.7975E-04    159.38  0.0000E+00      0.00
  180.00     40.00   -999.99  -999.99  -999.99      0.0000      0.00         4.0927E-14    -21.32  0.0000E+00      0.00
    0.00     44.00   -999.99  -999.99  -999.99      0.0000      0.00         0.0000E+00      0.00  0.0000E+00      0.00
    4.00     44.00    -21.68  -999.99   -21.68      0.0000     -0.00 LINEAR  2.8029E-04   -158.92  0.0000E+00      0.00
    8.00     44.00    -15.67  -999.99   -15.67      0.0000     -0.00 LINEAR  5.5944E-04   -158.47  0.0000E+00      0.00
   12.00     44.00    -12.18  -999.99   -12.18      0.0000     -0.00 LINEAR  8.3629E-04   -158.11  0.0000E+00      0.00
   16.00     44.00     -9.72  -999.99    -9.72      0.0000     -0.00 LINEAR  1.1097E-03   -157.87  0.0000E+00      0.00
   20.00     44.00     -7.84  -999.99    -7.84      0.0000     -0.00 LINEAR  1.3785E-03   -157.74  0.0000E+00      0.00
   24.00     44.00     -6.32  -999.99    -6.32      0.0000     -0.00 LINEAR  1.6415E-03   -157.71  0.0000E+00      0.00
   28.00     44.00     -5.06  -999.99    -5.06      0.0000     -0.00 LINEAR  1.8975E-03   -157.80  0.0000E+00      0.00
   32.00     44.00     -4.00  -999.99    -4.00      0.0000     -0.00 LINEAR  2.1453E-03   -158.00  0.0000E+00      0.00
   36.00     44.00     -3.08  -999.99    -3.08      0.0000     -0.00 LINEAR  2.3838E-03   -158.30  0.0000E+00      0.00
   40.00     44.00     -2.29  -999.99    -2.29      0.0000     -0.00 LINEAR  2.6117E-03   -158.72  0.0000E+00      0.00
   44.00     44.00     -1.60  -999.99    -1.60      0.0000     -0.00 LINEAR  2.8277E-03   -159.24  0.0000E+00      0.00
   48.00     44.00     -1.00  -999.99    -1.00      0.0000     -0.00 LINEAR  3.0308E-03   -159.86  0.0000E+00      0.00
   52.00     44.00     -0.47  -999.99    -0.47      0.0000     -0.00 LINEAR  3.2197E-03   -160.58  0.0000E+00      0.00
   56.00     44.00     -0.01  -999.99    -0.01      0.0000     -0.00 LINEAR  3.3934E-03   -161.41  0.0000E+00      0.00
   60.00     44.00      0.38  -999.99     0.38      0.0000     -0.00 LINEAR  3.5507E-03   -162.32  0.0000E+00      0.00
   64.00     44.00      0.71  -999.99     0.71      0.0000     -0.00 LINEAR  3.6908E-03   -163.32  0.0000E+00      0.00
   68.00     44.00      1.00  -999.99     1.00      0.0000     -0.00 LINEAR  3.8126E-03   -164.41  0.0000E+00      0.00
   72.00     44.00      1.23  -999.99     1.23      0.0000     -0.00 LINEAR  3.9154E-03   -165.58  0.0000E+00      0.00
   76.00     44.00      1.41  -999.99     1.41      0.0000     -0.00 LINEAR  3.9984E-03   -166.81  0.0000E+00      0.00
   80.00     44.00      1.55  -999.99     1.55      0.0000     -0.00 LINEAR  4.0611E-03   -168.12  0.0000E+00      0.00
   84.00     44.00      1.63  -999.99     1.63      0.0000     -0.00 LINEAR  4.1031E-03   -169.48  0.0000E+00      0.00
   88.00     44.00      1.68  -999.99     1.68      0.0000     -0.00 LINEAR  4.1240E-03   -170.90  0.0000E+00      0.00
   92.00     44.00      1.68  -999.99     1.68      0.0000     -0.00 LINEAR  4.1237E-03   -172.37  0.0000E+00      0.00
   96.00     44.00      1.63  -999.99     1.63      0.0000     -0.00 LINEAR  4.1022E-03   -173.87  0.0000E+00      0.00
  100.00     44.00      1.54  -999.99     1.54      0.0000     -0.00 LINEAR  4.0597E-03   -175.41  0.0000E+00      0.00
  104.00     44.00      1.41  -999.99     1.41      0.0000     -0.00 LINEAR  3.9965E-03   -176.97  0.0000E+00      0.00
  108.00     44.00      1.22  -999.99     1.22      0.0000     -0.00 LINEAR  3.9130E-03   -178.54  0.0000E+00      0.00
  112.00     44.00      0.99  -999.99     0.99      0.0000     -0.00 LINEAR  3.8098E-03    179.88  0.0000E+00      0.00
  116.00     44.00      0.71  -999.99     0.71      0.0000     -0.00 LINEAR  3.6877E-03    178.29  0.0000E+00      0.00
  120.00     44.00      0.37  -999.99     0.37      0.0000     -0.00 LINEAR  3.5473E-03    176.71  0.0000E+00      0.00
  124.00     44.00     -0.02  -999.99    -0.02      0.0000     -0.00 LINEAR  3.3897E-03    175.15  0.0000E+00      0.00
  128.00     44.00     -0.48  -999.99    -0.48      0.0000     -0.00 LINEAR  3.2159E-03    173.61  0.0000E+00      0.00
  132.00     44.00     -1.01  -999.99    -1.01      0.0000     -0.00 LINEAR  3.0269E-03    172.10  0.0000E+00      0.00
  136.00     44.00     -1.61  -999.99    -1.61      0.0000     -0.00 LINEAR  2.8238E-03    170.62  0.0000E+00      0.00
  140.00     44.00     -2.30  -999.99    -2.30      0.0000     -0.00 LINEAR  2.6078E-03    169.19  0.0000E+00      0.00
  144.00     44.00     -3.10  -999.99    -3.10      0.0000     -0.00 LINEAR  2.3801E-03    167.81  0.0000E+00      0.00
  148.00     44.00     -4.01  -999.99    -4.01      0.0000     -0.00 LINEAR  2.1418E-03    166.49  0.0000E+00      0.00
  152.00     44.00     -5.08  -999.99    -5.08      0.0000     -0.00 LINEAR  1.8943E-03    165.24  0.0000E+00      0.00
  156.00     44.00     -6.34  -999.99    -6.34      0.0000     -0.00 LINEAR  1.6386E-03    164.05  0.0000E+00      0.00
  160.00     44.00     -7.86  -999.99    -7.86      0.0000     -0.00 LINEAR  1.3760E-03    162.94  0.0000E+00      0.00
  164.00     44.00     -9.74  -999.99    -9.74      0.0000     -0.00 LINEAR  1.1076E-03    161.90  0.0000E+00      0.00
  168.00     44.00    -12.20  -999.99   -12.20      0.0000     -0.00 LINEAR  8.3470E-04    160.96  0.0000E+00      0.00
  172.00     44.00    -15.69  -999.99   -15.69      0.0000     -0.00 LINEAR  5.5836E-04    160.10  0.0000E+00      0.00
  176.00     44.00    -21.69  -999.99   -21.69      0.0000     -0.00 LINEAR  2.7975E-04    159.34  0.0000E+00      0.00
  180.00     44.00   -999.99  -999.99  -999.99      0.0000      0.00         4.0927E-14    -21.32  0.0000E+00      0.00
    0.00     48.00   -999.99  -999.99  -999.99      0.0000      0.00         0.0000E+00      0.00  0.0000E+00      0.00
    4.00     48.00    -21.68  -999.99   -21.68      0.0000     -0.00 LINEAR  2.8029E-04   -158.97  0.0000E+00      0.00
    8.00     48.00    -15.67  -999.99   -15.67      0.0000     -0.00 LINEAR  5.5944E-04   -158.55  0.0000E+00      0.00
   12.00     48.00    -12.18  -999.99   -12.18      0.0000     -0.00 LINEAR  8.3629E-04   -158.24  0.0000E+00      0.00
   16.00     48.00     -9.72  -999.99    -9.72      0.0000     -0.00 LINEAR  1.1097E-03   -158.04  0.0000E+00      0.00
   20.00     48.00     -7.84  -999.99    -7.84      0.0000     -0.00 LINEAR  1.3785E-03   -157.95  0.0000E+00      0.00
   24.00     48.00     -6.32  -999.99    -6.32      0.0000     -0.00 LINEAR  1.6415E-03   -157.96  0.0000E+00      0.00
   28.00     48.00     -5.06  -999.99    -5.06      0.0000     -0.00 LINEAR  1.8975E-03   -158.09  0.0000E+00      0.00
   32.00     48.00     -4.00  -999.99    -4.00      0.0000     -0.00 LINEAR  2.1453E-03   -158.32  0.0000E+00      0.00
   36.00     48.00     -3.08  -999.99    -3.08      0.0000     -0.00 LINEAR  2.3838E-03   -158.66  0.0000E+00      0.00
   40.00     48.00     -2.29  -999.99    -2.29      0.0000     -0.00 LINEAR  2.6117E-03   -159.11  0.0000E+00      0.00
   44.00     48.00     -1.60  -999.99    -1.60      0.0000     -0.00 LINEAR  2.8277E-03   -159.66  0.0000E+00      0.00
   48.00     48.00     -1.00  -999.99    -1.00      0.0000     -0.00 LINEAR  3.0308E-03   -160.32  0.0000E+00      0.00
   52.00     48.00     -0.47  -999.99    -0.47      0.0000     -0.00 LINEAR  3.2197E-03   -161.07  0.0000E+00      0.00
   56.00     48.00     -0.01  -999.99    -0.01      0.0000     -0.00 LINEAR  3.3934E-03   -161.91  0.0000E+00      0.00
   60.00     48.00      0.38  -999.99     0.38      0.0000     -0.00 LINEAR  3.5507E-03   -162.85  0.0000E+00      0.00
   64.00     48.00      0.71  -999.99     0.71      0.0000     -0.00 LINEAR  3.6908E-03   -163.87  0.0000E+00      0.00
   68.00     48.00      1.00  -999.99     1.00      0.0000     -0.00 LINEAR  3.8126E-03   -164.98  0.0000E+00      0.00
   72.00     48.00      1.23  -999.99     1.23      0.0000     -0.00 LINEAR  3.9154E-03   -166.16  0.0000E+00      0.00
   76.00     48.00      1.41  -999.99     1.41      0.0000     -0.00 LINEAR  3.9984E-03   -167.41  0.0000E+00      0.00
   80.00     48.00      1.55  -999.99     1.55      0.0000     -0.00 LINEAR  4.0611E-03   -168.72  0.0000E+00      0.00
   84.00     48.00      1.63  -999.99     1.63      0.0000     -0.00 LINEAR  4.1031E-03   -170.09  0.0000E+00      0.00
   88.00     48.00      1.68  -999.99     1.68      0.0000     -0.00 LINEAR  4.1240E-03   -171.51  0.0000E+00      0.00
   92.00     48.00      1.68  -999.99     1.68      0.0000     -0.00 LINEAR  4.1237E-03   -172.98  0.0000E+00      0.00
   96.00     48.00      1.63  -999.99     1.63      0.0000     -0.00 LINEAR  4.1022E-03   -174.48  0.0000E+00      0.00
  100.00     48.00      1.54  -999.99     1.54      0.0000     -0.00 LINEAR  4.0597E-03   -176.01  0.0000E+00      0.00
  104.00     48.00      1.41  -999.99     1.41      0.0000     -0.00 LINEAR  3.9965E-03   -177.56  0.0000E+00      0.00
  108.00     48.00      1.22  -999.99     1.22      0.0000     -0.00 LINEAR  3.9130E-03   -179.12  0.0000E+00      0.00
  112.00     48.00      0.99  -999.99     0.99      0.0000     -0.00 LINEAR  3.8098E-03    179.31  0.0000E+00      0.00
  116.00     48.00      0.71  -999.99     0.71      0.0000     -0.00 LINEAR  3.6877E-03    177.74  0.0000E+00      0.00
  120.00     48.00      0.37  -999.99     0.37      0.0000     -0.00 LINEAR  3.5473E-03    176.18  0.0000E+00      0.00
  124.00     48.00     -0.02  -999.99    -0.02      0.0000     -0.00 LINEAR  3.3897E-03    174.64  0.0000E+00      0.00
  128.00     48.00     -0.48  -999.99    -0.48      0.0000     -0.00 LINEAR  3.2159E-03    173.13  0.0000E+00      0.00
  132.00     48.00     -1.01  -999.99    -1.01      0.0000     -0.00 LINEAR  3.0269E-03    171.64  0.0000E+00      0.00
  136.00     48.00     -1.61  -999.99    -1.61      0.0000     -0.00 LINEAR  2.8238E-03    170.20  0.0000E+00      0.00
  140.00     48.00     -2.30  -999.99    -2.30      0.0000     -0.00 LINEAR  2.6078E-03    168.80  0.0000E+00      0.00
  144.00     48.00     -3.10  -999.99    -3.10      0.0000     -0.00 LINEAR  2.3801E-03    167.45  0.0000E+00      0.00
  148.00     48.00     -4.01  -999.99    -4.01      0.0000     -0.00 LINEAR  2.1418E-03    166.17  0.0000E+00      0.00
  152.00     48.00     -5.08  -999.99    -5.08      0.0000     -0.00 LINEAR  1.8943E-03    164.95  0.0000E+00      0.00
  156.00     48.00     -6.34  -999.99    -6.34      0.0000     -0.00 LINEAR  1.6386E-03    163.80  0.0000E+00      0.00
  160.00     48.00     -7.86  -999.99    -7.86      0.0000     -0.00 LINEAR  1.3760E-03    162.73  0.0000E+00      0.00
  164.00     48.00     -9.74  -999.99    -9.74      0.0000     -0.00 LINEAR  1.1076E-03    161.74  0.0000E+00      0.00
  168.00     48.00    -12.20  -999.99   -12.20      0.0000     -0.00 LINEAR  8.3470E-04    160.83  0.0000E+00      0.00
  172.00     48.00    -15.69  -999.99   -15.69      0.0000     -0.00 LINEAR  5.5836E-04    160.02  0.0000E+00      0.00
  176.00     48.00    -21.69  -999.99   -21.69      0.0000     -0.00 LINEAR  2.7975E-04    159.30  0.0000E+00      0.00
  180.00     48.00   -999.99  -999.99  -999.99      0.0000      0.00         4.0927E-14    -21.32  0.0000E+00      0.00
    0.00     52.00   -999.99  -999.99  -999.99      0.0000      0.00         0.0000E+00      0.00  0.0000E+00      0.00
    4.00     52.00    -21.68  -999.99   -21.68      0.0000     -0.00 LINEAR  2.8029E-04   -159.01  0.0000E+00      0.00
    8.00     52.00    -15.67  -999.99   -15.67      0.0000     -0.00 LINEAR  5.5944E-04   -158.64  0.0000E+00      0.00
   12.00     52.00    -12.18  -999.99   -12.18      0.0000     -0.00 LINEAR  8.3629E-04   -158.38  0.0000E+00      0.00
   16.00     52.00     -9.72  -999.99    -9.72      0.0000     -0.00 LINEAR  1.1097E-03   -158.22  0.0000E+00      0.00
   20.00     52.00     -7.84  -999.99    -7.84      0.0000     -0.00 LINEAR  1.3785E-03   -158.17  0.0000E+00      0.00
   24.00     52.00     -6.32  -999.99    -6.32      0.0000     -0.00 LINEAR  1.6415E-03   -158.23  0.0000E+00      0.00
   28.00     52.00     -5.06  -999.99    -5.06      0.0000     -0.00 LINEAR  1.8975E-03   -158.39  0.0000E+00      0.00
   32.00     52.00     -4.00  -999.99    -4.00      0.0000     -0.00 LINEAR  2.1453E-03   -158.67  0.0000E+00      0.00
   36.00     52.00     -3.08  -999.99    -3.08      0.0000     -0.00 LINEAR  2.3838E-03   -159.05  0.0000E+00      0.00
   40.00     52.00     -2.29  -999.99    -2.29      0.0000     -0.00 LINEAR  2.6117E-03   -159.53  0.0000E+00      0.00
   44.00     52.00     -1.60  -999.99    -1.60      0.0000     -0.00 LINEAR  2.8277E-03   -160.12  0.0000E+00      0.00
   48.00     52.00     -1.00  -999.99    -1.00      0.0000     -0.00 LINEAR  3.0308E-03   -160.80  0.0000E+00      0.00
   52.00     52.00     -0.47  -999.99    -0.47      0.0000     -0.00 LINEAR  3.2197E-03   -161.58  0.0000E+00      0.00
   56.00     52.00     -0.01  -999.99    -0.01      0.0000     -0.00 LINEAR  3.3934E-03   -162.45  0.0000E+00      0.00
   60.00     52.00      0.38  -999.99     0.38      0.0000     -0.00 LINEAR  3.5507E-03   -163.42  0.0000E+00      0.00
   64.00     52.00      0.71  -999.99     0.71      0.0000     -0.00 LINEAR  3.6908E-03   -164.46  0.0000E+00      0.00
   68.00     52.00      1.00  -999.99     1.00      0.0000     -0.00 LINEAR  3.8126E-03   -165.58  0.0000E+00      0.00
   72.00     52.00      1.23  -999.99     1.23      0.0000     -0.00 LINEAR  3.9154E-03   -166.78  0.0000E+00      0.00
[...]
   76.00    344.00      1.41  -999.99     1.41      0.0000     -0.00 LINEAR  3.9984E-03   -163.95  0.0000E+00      0.00
   80.00    344.00      1.55  -999.99     1.55      0.0000     -0.00 LINEAR  4.0611E-03   -165.21  0.0000E+00      0.00
   84.00    344.00      1.63  -999.99     1.63      0.0000     -0.00 LINEAR  4.1031E-03   -166.55  0.0000E+00      0.00
   88.00    344.00      1.68  -999.99     1.68      0.0000     -0.00 LINEAR  4.1240E-03   -167.95  0.0000E+00      0.00
   92.00    344.00      1.68  -999.99     1.68      0.0000     -0.00 LINEAR  4.1237E-03   -169.42  0.0000E+00      0.00
   96.00    344.00      1.63  -999.99     1.63      0.0000     -0.00 LINEAR  4.1022E-03   -170.93  0.0000E+00      0.00
  100.00    344.00      1.54  -999.99     1.54      0.0000     -0.00 LINEAR  4.0597E-03   -172.50  0.0000E+00      0.00
  104.00    344.00      1.41  -999.99     1.41      0.0000     -0.00 LINEAR  3.9965E-03   -174.10  0.0000E+00      0.00
  108.00    344.00      1.22  -999.99     1.22      0.0000     -0.00 LINEAR  3.9130E-03   -175.73  0.0000E+00      0.00
  112.00    344.00      0.99  -999.99     0.99      0.0000     -0.00 LINEAR  3.8098E-03   -177.39  0.0000E+00      0.00
  116.00    344.00      0.71  -999.99     0.71      0.0000     -0.00 LINEAR  3.6877E-03   -179.06  0.0000E+00      0.00
  120.00    344.00      0.37  -999.99     0.37      0.0000     -0.00 LINEAR  3.5473E-03    179.27  0.0000E+00      0.00
  124.00    344.00     -0.02  -999.99    -0.02      0.0000     -0.00 LINEAR  3.3897E-03    177.60  0.0000E+00      0.00
  128.00    344.00     -0.48  -999.99    -0.48      0.0000     -0.00 LINEAR  3.2159E-03    175.93  0.0000E+00      0.00
  132.00    344.00     -1.01  -999.99    -1.01      0.0000     -0.00 LINEAR  3.0269E-03    174.29  0.0000E+00      0.00
  136.00    344.00     -1.61  -999.99    -1.61      0.0000     -0.00 LINEAR  2.8238E-03    172.67  0.0000E+00      0.00
  140.00    344.00     -2.30  -999.99    -2.30      0.0000     -0.00 LINEAR  2.6078E-03    171.09  0.0000E+00      0.00
  144.00    344.00     -3.10  -999.99    -3.10      0.0000     -0.00 LINEAR  2.3801E-03    169.55  0.0000E+00      0.00
  148.00    344.00     -4.01  -999.99    -4.01      0.0000     -0.00 LINEAR  2.1418E-03    168.06  0.0000E+00      0.00
  152.00    344.00     -5.08  -999.99    -5.08      0.0000     -0.00 LINEAR  1.8943E-03    166.62  0.0000E+00      0.00
  156.00    344.00     -6.34  -999.99    -6.34      0.0000     -0.00 LINEAR  1.6386E-03    165.25  0.0000E+00      0.00
  160.00    344.00     -7.86  -999.99    -7.86      0.0000     -0.00 LINEAR  1.3760E-03    163.95  0.0000E+00      0.00
  164.00    344.00     -9.74  -999.99    -9.74      0.0000     -0.00 LINEAR  1.1076E-03    162.72  0.0000E+00      0.00
  168.00    344.00    -12.20  -999.99   -12.20      0.0000     -0.00 LINEAR  8.3470E-04    161.57  0.0000E+00      0.00
  172.00    344.00    -15.69  -999.99   -15.69      0.0000     -0.00 LINEAR  5.5836E-04    160.52  0.0000E+00      0.00
  176.00    344.00    -21.69  -999.99   -21.69      0.0000     -0.00 LINEAR  2.7975E-04    159.55  0.0000E+00      0.00
  180.00    344.00   -999.99  -999.99  -999.99      0.0000      0.00         4.0927E-14    -21.32  0.0000E+00      0.00
    0.00    348.00   -999.99  -999.99  -999.99      0.0000      0.00         0.0000E+00      0.00  0.0000E+00      0.00
    4.00    348.00    -21.68  -999.99   -21.68      0.0000     -0.00 LINEAR  2.8029E-04   -158.70  0.0000E+00      0.00
    8.00    348.00    -15.67  -999.99   -15.67      0.0000     -0.00 LINEAR  5.5944E-04   -158.03  0.0000E+00      0.00
   12.00    348.00    -12.18  -999.99   -12.18      0.0000     -0.00 LINEAR  8.3629E-04   -157.46  0.0000E+00      0.00
   16.00    348.00     -9.72  -999.99    -9.72      0.0000     -0.00 LINEAR  1.1097E-03   -157.00  0.0000E+00      0.00
   20.00    348.00     -7.84  -999.99    -7.84      0.0000     -0.00 LINEAR  1.3785E-03   -156.66  0.0000E+00      0.00
   24.00    348.00     -6.32  -999.99    -6.32      0.0000     -0.00 LINEAR  1.6415E-03   -156.43  0.0000E+00      0.00
   28.00    348.00     -5.06  -999.99    -5.06      0.0000     -0.00 LINEAR  1.8975E-03   -156.32  0.0000E+00      0.00
   32.00    348.00     -4.00  -999.99    -4.00      0.0000     -0.00 LINEAR  2.1453E-03   -156.32  0.0000E+00      0.00
   36.00    348.00     -3.08  -999.99    -3.08      0.0000     -0.00 LINEAR  2.3838E-03   -156.45  0.0000E+00      0.00
   40.00    348.00     -2.29  -999.99    -2.29      0.0000     -0.00 LINEAR  2.6117E-03   -156.69  0.0000E+00      0.00
   44.00    348.00     -1.60  -999.99    -1.60      0.0000     -0.00 LINEAR  2.8277E-03   -157.04  0.0000E+00      0.00
   48.00    348.00     -1.00  -999.99    -1.00      0.0000     -0.00 LINEAR  3.0308E-03   -157.51  0.0000E+00      0.00
   52.00    348.00     -0.47  -999.99    -0.47      0.0000     -0.00 LINEAR  3.2197E-03   -158.10  0.0000E+00      0.00
   56.00    348.00     -0.01  -999.99    -0.01      0.0000     -0.00 LINEAR  3.3934E-03   -158.79  0.0000E+00      0.00
   60.00    348.00      0.38  -999.99     0.38      0.0000     -0.00 LINEAR  3.5507E-03   -159.59  0.0000E+00      0.00
   64.00    348.00      0.71  -999.99     0.71      0.0000     -0.00 LINEAR  3.6908E-03   -160.48  0.0000E+00      0.00
   68.00    348.00      1.00  -999.99     1.00      0.0000     -0.00 LINEAR  3.8126E-03   -161.48  0.0000E+00      0.00
   72.00    348.00      1.23  -999.99     1.23      0.0000     -0.00 LINEAR  3.9154E-03   -162.57  0.0000E+00      0.00
   76.00    348.00      1.41  -999.99     1.41      0.0000     -0.00 LINEAR  3.9984E-03   -163.75  0.0000E+00      0.00
   80.00    348.00      1.55  -999.99     1.55      0.0000     -0.00 LINEAR  4.0611E-03   -165.01  0.0000E+00      0.00
   84.00    348.00      1.63  -999.99     1.63      0.0000     -0.00 LINEAR  4.1031E-03   -166.34  0.0000E+00      0.00
   88.00    348.00      1.68  -999.99     1.68      0.0000     -0.00 LINEAR  4.1240E-03   -167.75  0.0000E+00      0.00
   92.00    348.00      1.68  -999.99     1.68      0.0000     -0.00 LINEAR  4.1237E-03   -169.21  0.0000E+00      0.00
   96.00    348.00      1.63  -999.99     1.63      0.0000     -0.00 LINEAR  4.1022E-03   -170.73  0.0000E+00      0.00
  100.00    348.00      1.54  -999.99     1.54      0.0000     -0.00 LINEAR  4.0597E-03   -172.30  0.0000E+00      0.00
  104.00    348.00      1.41  -999.99     1.41      0.0000     -0.00 LINEAR  3.9965E-03   -173.90  0.0000E+00      0.00
  108.00    348.00      1.22  -999.99     1.22      0.0000     -0.00 LINEAR  3.9130E-03   -175.54  0.0000E+00      0.00
  112.00    348.00      0.99  -999.99     0.99      0.0000     -0.00 LINEAR  3.8098E-03   -177.20  0.0000E+00      0.00
  116.00    348.00      0.71  -999.99     0.71      0.0000     -0.00 LINEAR  3.6877E-03   -178.87  0.0000E+00      0.00
  120.00    348.00      0.37  -999.99     0.37      0.0000     -0.00 LINEAR  3.5473E-03    179.45  0.0000E+00      0.00
  124.00    348.00     -0.02  -999.99    -0.02      0.0000     -0.00 LINEAR  3.3897E-03    177.77  0.0000E+00      0.00
  128.00    348.00     -0.48  -999.99    -0.48      0.0000     -0.00 LINEAR  3.2159E-03    176.10  0.0000E+00      0.00
  132.00    348.00     -1.01  -999.99    -1.01      0.0000     -0.00 LINEAR  3.0269E-03    174.44  0.0000E+00      0.00
  136.00    348.00     -1.61  -999.99    -1.61      0.0000     -0.00 LINEAR  2.8238E-03    172.82  0.0000E+00      0.00
  140.00    348.00     -2.30  -999.99    -2.30      0.0000     -0.00 LINEAR  2.6078E-03    171.22  0.0000E+00      0.00
  144.00    348.00     -3.10  -999.99    -3.10      0.0000     -0.00 LINEAR  2.3801E-03    169.67  0.0000E+00      0.00
  148.00    348.00     -4.01  -999.99    -4.01      0.0000     -0.00 LINEAR  2.1418E-03    168.17  0.0000E+00      0.00
  152.00    348.00     -5.08  -999.99    -5.08      0.0000     -0.00 LINEAR  1.8943E-03    166.72  0.0000E+00      0.00
  156.00    348.00     -6.34  -999.99    -6.34      0.0000     -0.00 LINEAR  1.6386E-03    165.33  0.0000E+00      0.00
  160.00    348.00     -7.86  -999.99    -7.86      0.0000     -0.00 LINEAR  1.3760E-03    164.02  0.0000E+00      0.00
  164.00    348.00     -9.74  -999.99    -9.74      0.0000     -0.00 LINEAR  1.1076E-03    162.78  0.0000E+00      0.00
  168.00    348.00    -12.20  -999.99   -12.20      0.0000     -0.00 LINEAR  8.3470E-04    161.62  0.0000E+00      0.00
  172.00    348.00    -15.69  -999.99   -15.69      0.0000     -0.00 LINEAR  5.5836E-04    160.54  0.0000E+00      0.00
  176.00    348.00    -21.69  -999.99   -21.69      0.0000     -0.00 LINEAR  2.7975E-04    159.56  0.0000E+00      0.00
  180.00    348.00   -999.99  -999.99  -999.99      0.0000      0.00         4.0927E-14    -21.32  0.0000E+00      0.00
    0.00    352.00   -999.99  -999.99  -999.99      0.0000      0.00         0.0000E+00      0.00  0.0000E+00      0.00
    4.00    352.00    -21.68  -999.99   -21.68      0.0000     -0.00 LINEAR  2.8029E-04   -158.69  0.0000E+00      0.00
    8.00    352.00    -15.67  -999.99   -15.67      0.0000     -0.00 LINEAR  5.5944E-04   -158.01  0.0000E+00      0.00
   12.00    352.00    -12.18  -999.99   -12.18      0.0000     -0.00 LINEAR  8.3629E-04   -157.43  0.0000E+00      0.00
   16.00    352.00     -9.72  -999.99    -9.72      0.0000     -0.00 LINEAR  1.1097E-03   -156.96  0.0000E+00      0.00
   20.00    352.00     -7.84  -999.99    -7.84      0.0000     -0.00 LINEAR  1.3785E-03   -156.61  0.0000E+00      0.00
   24.00    352.00     -6.32  -999.99    -6.32      0.0000     -0.00 LINEAR  1.6415E-03   -156.37  0.0000E+00      0.00
   28.00    352.00     -5.06  -999.99    -5.06      0.0000     -0.00 LINEAR  1.8975E-03   -156.25  0.0000E+00      0.00
   32.00    352.00     -4.00  -999.99    -4.00      0.0000     -0.00 LINEAR  2.1453E-03   -156.25  0.0000E+00      0.00
   36.00    352.00     -3.08  -999.99    -3.08      0.0000     -0.00 LINEAR  2.3838E-03   -156.36  0.0000E+00      0.00
   40.00    352.00     -2.29  -999.99    -2.29      0.0000     -0.00 LINEAR  2.6117E-03   -156.59  0.0000E+00      0.00
   44.00    352.00     -1.60  -999.99    -1.60      0.0000     -0.00 LINEAR  2.8277E-03   -156.94  0.0000E+00      0.00
   48.00    352.00     -1.00  -999.99    -1.00      0.0000     -0.00 LINEAR  3.0308E-03   -157.40  0.0000E+00      0.00
   52.00    352.00     -0.47  -999.99    -0.47      0.0000     -0.00 LINEAR  3.2197E-03   -157.98  0.0000E+00      0.00
   56.00    352.00     -0.01  -999.99    -0.01      0.0000     -0.00 LINEAR  3.3934E-03   -158.67  0.0000E+00      0.00
   60.00    352.00      0.38  -999.99     0.38      0.0000     -0.00 LINEAR  3.5507E-03   -159.46  0.0000E+00      0.00
   64.00    352.00      0.71  -999.99     0.71      0.0000     -0.00 LINEAR  3.6908E-03   -160.35  0.0000E+00      0.00
   68.00    352.00      1.00  -999.99     1.00      0.0000     -0.00 LINEAR  3.8126E-03   -161.35  0.0000E+00      0.00
   72.00    352.00      1.23  -999.99     1.23      0.0000     -0.00 LINEAR  3.9154E-03   -162.43  0.0000E+00      0.00
   76.00    352.00      1.41  -999.99     1.41      0.0000     -0.00 LINEAR  3.9984E-03   -163.61  0.0000E+00      0.00
   80.00    352.00      1.55  -999.99     1.55      0.0000     -0.00 LINEAR  4.0611E-03   -164.86  0.0000E+00      0.00
   84.00    352.00      1.63  -999.99     1.63      0.0000     -0.00 LINEAR  4.1031E-03   -166.20  0.0000E+00      0.00
   88.00    352.00      1.68  -999.99     1.68      0.0000     -0.00 LINEAR  4.1240E-03   -167.60  0.0000E+00      0.00
   92.00    352.00      1.68  -999.99     1.68      0.0000     -0.00 LINEAR  4.1237E-03   -169.06  0.0000E+00      0.00
   96.00    352.00      1.63  -999.99     1.63      0.0000     -0.00 LINEAR  4.1022E-03   -170.58  0.0000E+00      0.00
  100.00    352.00      1.54  -999.99     1.54      0.0000     -0.00 LINEAR  4.0597E-03   -172.15  0.0000E+00      0.00
  104.00    352.00      1.41  -999.99     1.41      0.0000     -0.00 LINEAR  3.9965E-03   -173.76  0.0000E+00      0.00
  108.00    352.00      1.22  -999.99     1.22      0.0000     -0.00 LINEAR  3.9130E-03   -175.40  0.0000E+00      0.00
  112.00    352.00      0.99  -999.99     0.99      0.0000     -0.00 LINEAR  3.8098E-03   -177.06  0.0000E+00      0.00
  116.00    352.00      0.71  -999.99     0.71      0.0000     -0.00 LINEAR  3.6877E-03   -178.74  0.0000E+00      0.00
  120.00    352.00      0.37  -999.99     0.37      0.0000     -0.00 LINEAR  3.5473E-03    179.57  0.0000E+00      0.00
  124.00    352.00     -0.02  -999.99    -0.02      0.0000     -0.00 LINEAR  3.3897E-03    177.89  0.0000E+00      0.00
  128.00    352.00     -0.48  -999.99    -0.48      0.0000     -0.00 LINEAR  3.2159E-03    176.21  0.0000E+00      0.00
  132.00    352.00     -1.01  -999.99    -1.01      0.0000     -0.00 LINEAR  3.0269E-03    174.55  0.0000E+00      0.00
  136.00    352.00     -1.61  -999.99    -1.61      0.0000     -0.00 LINEAR  2.8238E-03    172.92  0.0000E+00      0.00
  140.00    352.00     -2.30  -999.99    -2.30      0.0000     -0.00 LINEAR  2.6078E-03    171.32  0.0000E+00      0.00
  144.00    352.00     -3.10  -999.99    -3.10      0.0000     -0.00 LINEAR  2.3801E-03    169.76  0.0000E+00      0.00
  148.00    352.00     -4.01  -999.99    -4.01      0.0000     -0.00 LINEAR  2.1418E-03    168.24  0.0000E+00      0.00
  152.00    352.00     -5.08  -999.99    -5.08      0.0000     -0.00 LINEAR  1.8943E-03    166.79  0.0000E+00      0.00
  156.00    352.00     -6.34  -999.99    -6.34      0.0000     -0.00 LINEAR  1.6386E-03    165.39  0.0000E+00      0.00
  160.00    352.00     -7.86  -999.99    -7.86      0.0000     -0.00 LINEAR  1.3760E-03    164.07  0.0000E+00      0.00
  164.00    352.00     -9.74  -999.99    -9.74      0.0000     -0.00 LINEAR  1.1076E-03    162.82  0.0000E+00      0.00
  168.00    352.00    -12.20  -999.99   -12.20      0.0000     -0.00 LINEAR  8.3470E-04    161.65  0.0000E+00      0.00
  172.00    352.00    -15.69  -999.99   -15.69      0.0000     -0.00 LINEAR  5.5836E-04    160.56  0.0000E+00      0.00
  176.00    352.00    -21.69  -999.99   -21.69      0.0000     -0.00 LINEAR  2.7975E-04    159.57  0.0000E+00      0.00
  180.00    352.00   -999.99  -999.99  -999.99      0.0000      0.00         4.0927E-14    -21.32  0.0000E+00      0.00
    0.00    356.00   -999.99  -999.99  -999.99      0.0000      0.00         0.0000E+00      0.00  0.0000E+00      0.00
    4.00    356.00    -21.68  -999.99   -21.68      0.0000     -0.00 LINEAR  2.8029E-04   -158.69  0.0000E+00      0.00
    8.00    356.00    -15.67  -999.99   -15.67      0.0000     -0.00 LINEAR  5.5944E-04   -157.99  0.0000E+00      0.00
   12.00    356.00    -12.18  -999.99   -12.18      0.0000     -0.00 LINEAR  8.3629E-04   -157.41  0.0000E+00      0.00
   16.00    356.00     -9.72  -999.99    -9.72      0.0000     -0.00 LINEAR  1.1097E-03   -156.94  0.0000E+00      0.00
   20.00    356.00     -7.84  -999.99    -7.84      0.0000     -0.00 LINEAR  1.3785E-03   -156.58  0.0000E+00      0.00
   24.00    356.00     -6.32  -999.99    -6.32      0.0000     -0.00 LINEAR  1.6415E-03   -156.33  0.0000E+00      0.00
   28.00    356.00     -5.06  -999.99    -5.06      0.0000     -0.00 LINEAR  1.8975E-03   -156.21  0.0000E+00      0.00
   32.00    356.00     -4.00  -999.99    -4.00      0.0000     -0.00 LINEAR  2.1453E-03   -156.20  0.0000E+00      0.00
   36.00    356.00     -3.08  -999.99    -3.08      0.0000     -0.00 LINEAR  2.3838E-03   -156.31  0.0000E+00      0.00
   40.00    356.00     -2.29  -999.99    -2.29      0.0000     -0.00 LINEAR  2.6117E-03   -156.53  0.0000E+00      0.00
   44.00    356.00     -1.60  -999.99    -1.60      0.0000     -0.00 LINEAR  2.8277E-03   -156.88  0.0000E+00      0.00
   48.00    356.00     -1.00  -999.99    -1.00      0.0000     -0.00 LINEAR  3.0308E-03   -157.34  0.0000E+00      0.00
   52.00    356.00     -0.47  -999.99    -0.47      0.0000     -0.00 LINEAR  3.2197E-03   -157.91  0.0000E+00      0.00
   56.00    356.00     -0.01  -999.99    -0.01      0.0000     -0.00 LINEAR  3.3934E-03   -158.59  0.0000E+00      0.00
   60.00    356.00      0.38  -999.99     0.38      0.0000     -0.00 LINEAR  3.5507E-03   -159.38  0.0000E+00      0.00
   64.00    356.00      0.71  -999.99     0.71      0.0000     -0.00 LINEAR  3.6908E-03   -160.27  0.0000E+00      0.00
   68.00    356.00      1.00  -999.99     1.00      0.0000     -0.00 LINEAR  3.8126E-03   -161.26  0.0000E+00      0.00
   72.00    356.00      1.23  -999.99     1.23      0.0000     -0.00 LINEAR  3.9154E-03   -162.35  0.0000E+00      0.00
   76.00    356.00      1.41  -999.99     1.41      0.0000     -0.00 LINEAR  3.9984E-03   -163.52  0.0000E+00      0.00
   80.00    356.00      1.55  -999.99     1.55      0.0000     -0.00 LINEAR  4.0611E-03   -164.78  0.0000E+00      0.00
   84.00    356.00      1.63  -999.99     1.63      0.0000     -0.00 LINEAR  4.1031E-03   -166.11  0.0000E+00      0.00
   88.00    356.00      1.68  -999.99     1.68      0.0000     -0.00 LINEAR  4.1240E-03   -167.51  0.0000E+00      0.00
   92.00    356.00      1.68  -999.99     1.68      0.0000     -0.00 LINEAR  4.1237E-03   -168.97  0.0000E+00      0.00
   96.00    356.00      1.63  -999.99     1.63      0.0000     -0.00 LINEAR  4.1022E-03   -170.49  0.0000E+00      0.00
  100.00    356.00      1.54  -999.99     1.54      0.0000     -0.00 LINEAR  4.0597E-03   -172.06  0.0000E+00      0.00
  104.00    356.00      1.41  -999.99     1.41      0.0000     -0.00 LINEAR  3.9965E-03   -173.67  0.0000E+00      0.00
  108.00    356.00      1.22  -999.99     1.22      0.0000     -0.00 LINEAR  3.9130E-03   -175.31  0.0000E+00      0.00
  112.00    356.00      0.99  -999.99     0.99      0.0000     -0.00 LINEAR  3.8098E-03   -176.98  0.0000E+00      0.00
  116.00    356.00      0.71  -999.99     0.71      0.0000     -0.00 LINEAR  3.6877E-03   -178.66  0.0000E+00      0.00
  120.00    356.00      0.37  -999.99     0.37      0.0000     -0.00 LINEAR  3.5473E-03    179.65  0.0000E+00      0.00
  124.00    356.00     -0.02  -999.99    -0.02      0.0000     -0.00 LINEAR  3.3897E-03    177.96  0.0000E+00      0.00
  128.00    356.00     -0.48  -999.99    -0.48      0.0000     -0.00 LINEAR  3.2159E-03    176.28  0.0000E+00      0.00
  132.00    356.00     -1.01  -999.99    -1.01      0.0000     -0.00 LINEAR  3.0269E-03    174.62  0.0000E+00      0.00
  136.00    356.00     -1.61  -999.99    -1.61      0.0000     -0.00 LINEAR  2.8238E-03    172.98  0.0000E+00      0.00
  140.00    356.00     -2.30  -999.99    -2.30      0.0000     -0.00 LINEAR  2.6078E-03    171.37  0.0000E+00      0.00
  144.00    356.00     -3.10  -999.99    -3.10      0.0000     -0.00 LINEAR  2.3801E-03    169.81  0.0000E+00      0.00
  148.00    356.00     -4.01  -999.99    -4.01      0.0000     -0.00 LINEAR  2.1418E-03    168.29  0.0000E+00      0.00
  152.00    356.00     -5.08  -999.99    -5.08      0.0000     -0.00 LINEAR  1.8943E-03    166.83  0.0000E+00      0.00
  156.00    356.00     -6.34  -999.99    -6.34      0.0000     -0.00 LINEAR  1.6386E-03    165.43  0.0000E+00      0.00
  160.00    356.00     -7.86  -999.99    -7.86      0.0000     -0.00 LINEAR  1.3760E-03    164.10  0.0000E+00      0.00
  164.00    356.00     -9.74  -999.99    -9.74      0.0000     -0.00 LINEAR  1.1076E-03    162.84  0.0000E+00      0.00
  168.00    356.00    -12.20  -999.99   -12.20      0.0000     -0.00 LINEAR  8.3470E-04    161.67  0.0000E+00      0.00
  172.00    356.00    -15.69  -999.99   -15.69      0.0000     -0.00 LINEAR  5.5836E-04    160.58  0.0000E+00      0.00
  176.00    356.00    -21.69  -999.99   -21.69      0.0000     -0.00 LINEAR  2.7975E-04    159.58  0.0000E+00      0.00
  180.00    356.00   -999.99  -999.99  -999.99      0.0000      0.00         4.0927E-14    -21.32  0.0000E+00      0.00








*****  DATA CARD N0.   5 EN   0     0     0     0  0.00000E+00  0.00000E+00  0.00000E+00  0.00000E+00  0.00000E+00  0.00000E+00

  TOTAL RUN TIME: 40 msec