


                                __________________________________________
                               |                                          |
                               | NUMERICAL ELECTROMAGNETICS CODE (nec2++) |
                               | Translated to 'C++' in Double Precision  |
                               |        Version 1.5.1 [2014-01-02]        |
                               |__________________________________________|



                                -------- STRUCTURE SPECIFICATION --------
                                COORDINATES MUST BE INPUT IN
                                METERS OR BE SCALED TO METERS
                                BEFORE STRUCTURE INPUT IS ENDED
  WIRE                                                                                 SEG FIRST  LAST  TAG
   No:        X1         Y1         Z1         X2         Y2         Z2       RADIUS   No:   SEG   SEG  No:

     1      0.7567     0.5600     1.2500     0.7567     0.5600     1.7300     0.0010     8     1     8    1
     STRUCTURE SCALED BY FACTOR:    1.00000

     TOTAL SEGMENTS USED: 8   SEGMENTS IN A SYMMETRIC CELL: 8   SYMMETRY FLAG: 0


                               ---------- SEGMENTATION DATA ----------
                                        COORDINATES IN METERS
                            I+ AND I- INDICATE THE SEGMENTS BEFORE AND AFTER I

   SEG    COORDINATES OF SEGM CENTER     SEGM    ORIENTATION ANGLES    WIRE    CONNECTION DATA   TAG
   No:       X         Y         Z      LENGTH     ALPHA      BETA    RADIUS    I-     I    I+   NO:
     1    0.7567    0.5600    1.2800    0.0600   90.0000    0.0000    0.0010     0     1     2     1
     2    0.7567    0.5600    1.3400    0.0600   90.0000    0.0000    0.0010     1     2     3     1
     3    0.7567    0.5600    1.4000    0.0600   90.0000    0.0000    0.0010     2     3     4     1
     4    0.7567    0.5600    1.4600    0.0600   90.0000    0.0000    0.0010     3     4     5     1
     5    0.7567    0.5600    1.5200    0.0600   90.0000    0.0000    0.0010     4     5     6     1
     6    0.7567    0.5600    1.5800    0.0600   90.0000    0.0000    0.0010     5     6     7     1
     7    0.7567    0.5600    1.6400    0.0600   90.0000    0.0000    0.0010     6     7     8     1
     8    0.7567    0.5600    1.7000    0.0600   90.0000    0.0000    0.0010     7     8     0     1



*****  DATA CARD N0.   1 GN  -1     0     0     0  0.00000E+00  0.00000E+00  0.00000E+00  0.00000E+00  0.00000E+00  0.00000E+00
*****  DATA CARD N0.   2 FR   0     1     0     0  1.00000E+02  1.00000E+01  0.00000E+00  0.00000E+00  0.00000E+00  0.00000E+00
*****  DATA CARD N0.   3 EX   0     1     1     0  1.00000E+00  0.00000E+00  0.00000E+00  0.00000E+00  0.00000E+00  0.00000E+00
*****  DATA CARD N0.   4 RP   0    46    90  1000  0.00000E+00  0.00000E+00  4.00000E+00  4.00000E+00  0.00000E+00  0.00000E+00


                               --------- FREQUENCY --------
                               FREQUENCY=  1.0000E+02 MHZ
                               WAVELENGTH= 2.9980E+00 METERS


                        APPROXIMATE INTEGRATION EMPLOYED FOR SEGMENTS
                        THAT ARE MORE THAN 1.000 WAVELENGTHS APART



                          ------ STRUCTURE IMPEDANCE LOADING ------
                                 THIS STRUCTURE IS NOT LOADED



                            -------- ANTENNA ENVIRONMENT --------
                            FREE SPACE



                             ---------- MATRIX TIMING ----------
                               FILL= 0 msec  FACTOR: 0 msec


                      ----- ANTENNA INPUT PARAMETERS -----
  TAG   SEG       VOLTAGE (VOLTS)         CURRENT (AMPS)         IMPEDANCE (OHMS)        ADMITTANCE (MHOS)     POWER
  NO.   NO.     REAL      IMAGINARY     REAL      IMAGINARY     REAL      IMAGINARY    REAL       IMAGINARY   (WATTS)
   1     1  1.0000E+00  0.0000E+00  3.8542E-07  2.1831E-04  8.0869E+00 -4.5806E+03  3.8542E-07  2.1831E-04  1.9271E-07







                        ----- CURRENTS AND LOCATION -----
                            DISTANCES IN WAVELENGTHS 

   SEG  TAG    COORDINATES OF SEGM CENTER     SEGM    ------------- CURRENT (AMPS) -------------
   No:  No:       X         Y         Z      LENGTH     REAL      IMAGINARY    MAGN        PHASE
     1    1    0.2524    0.1868    0.4270   0.02001  3.8542E-07  2.1831E-04  2.1831E-04   89.899 
     2    1    0.2524    0.1868    0.4470   0.02001  9.0625E-07  2.3467E-04  2.3467E-04   89.779 
     3    1    0.2524    0.1868    0.4670   0.02001  1.2301E-06  1.9510E-04  1.9511E-04   89.639 
     4    1    0.2524    0.1868    0.4870   0.02001  1.3889E-06  1.6240E-04  1.6241E-04   89.510 
     5    1    0.2524    0.1868    0.5070   0.02001  1.3873E-06  1.2991E-04  1.2992E-04   89.388 
     6    1    0.2524    0.1868    0.5270   0.02001  1.2260E-06  9.6421E-05  9.6429E-05   89.272 
     7    1    0.2524    0.1868    0.5470   0.02001  9.0121E-07  6.1364E-05  6.1371E-05   89.159 
     8    1    0.2524    0.1868    0.5671   0.02001  3.8242E-07  2.3064E-05  2.3067E-05   89.050 






                               ---------- POWER BUDGET ---------
                               INPUT POWER   =  1.9271E-07 Watts
                               RADIATED POWER=  1.9271E-07 Watts
                               STRUCTURE LOSS=  0.0000E+00 Watts
                               NETWORK LOSS  =  0.0000E+00 Watts
                               EFFICIENCY    =  100.00 Percent


                         ----- RADIATION PATTERNS -----
 ---- ANGLES -----     ----- POWER GAINS -----       ---- POLARIZATION ----   ---- E(THETA) ----    ----- E(PHI) ------
  THETA      PHI       VERTC   HORIZ   TOTAL       AXIAL      TILT  SENSE   MAGNITUDE    PHASE    MAGNITUDE     PHASE
 DEGREES   DEGREES        DB       DB       DB       RATIO   DEGREES            VOLTS/M   DEGREES     VOLTS/M   DEGREES
    0.00      0.00   -999.99  -999.99  -999.99      0.0000      0.00         0.0000E+00      0.00  0.0000E+00      0.00
    4.00      0.00    -21.68  -999.99   -21.68      0.0000      0.00 LINEAR  2.8029E-04     -3.46  0.0000E+00      0.00
    8.00      0.00    -15.67  -999.99   -15.67      0.0000      0.00 LINEAR  5.5944E-04      1.60  0.0000E+00      0.00
   12.00      0.00    -12.18  -999.99   -12.18      0.0000      0.00 LINEAR  8.3629E-04      5.77  0.0000E+00      0.00
   16.00      0.00     -9.72  -999.99    -9.72      0.0000      0.00 LINEAR  1.1097E-03      9.04  0.0000E+00      0.00
   20.00      0.00     -7.84  -999.99    -7.84      0.0000      0.00 LINEAR  1.3785E-03     11.39  0.0000E+00      0.00
   24.00      0.00     -6.32  -999.99    -6.32      0.0000      0.00 LINEAR  1.6415E-03     12.80  0.0000E+00      0.00
   28.00      0.00     -5.06  -999.99    -5.06      0.0000      0.00 LINEAR  1.8975E-03     13.27  0.0000E+00      0.00
   32.00      0.00     -4.00  -999.99    -4.00      0.0000      0.00 LINEAR  2.1453E-03     12.80  0.0000E+00      0.00
   36.00      0.00     -3.08  -999.99    -3.08      0.0000      0.00 LINEAR  2.3838E-03     11.38  0.0000E+00      0.00
   40.00      0.00     -2.29  -999.99    -2.29      0.0000      0.00 LINEAR  2.6117E-03      9.03  0.0000E+00      0.00
   44.00      0.00     -1.60  -999.99    -1.60      0.0000      0.00 LINEAR  2.8277E-03      5.76  0.0000E+00      0.00
   48.00      0.00     -1.00  -999.99    -1.00      0.0000      0.00 LINEAR  3.0308E-03      1.58  0.0000E+00      0.00
   52.00      0.00     -0.47  -999.99    -0.47      0.0000      0.00 LINEAR  3.2197E-03     -3.49  0.0000E+00      0.00
   56.00      0.00     -0.01  -999.99    -0.01      0.0000      0.00 LINEAR  3.3934E-03     -9.42  0.0000E+00      0.00
   60.00      0.00      0.38  -999.99     0.38      0.0000      0.00 LINEAR  3.5507E-03    -16.18  0.0000E+00      0.00
   64.00      0.00      0.71  -999.99     0.71      0.0000      0.00 LINEAR  3.6908E-03    -23.74  0.0000E+00      0.00
   68.00      0.00      1.00  -999.99     1.00      0.0000      0.00 LINEAR  3.8126E-03    -32.07  0.0000E+00      0.00
   72.00      0.00      1.23  -999.99     1.23      0.0000      0.00 LINEAR  3.9154E-03    -41.12  0.0000E+00      0.00
   76.00      0.00      1.41  -999.99     1.41      0.0000      0.00 LINEAR  3.9984E-03    -50.85  0.0000E+00      0.00
   80.00      0.00      1.55  -999.99     1.55      0.0000      0.00 LINEAR  4.0611E-03    -61.21  0.0000E+00      0.00
   84.00      0.00      1.63  -999.99     1.63      0.0000      0.00 LINEAR  4.1031E-03    -72.16  0.0000E+00      0.00
   88.00      0.00      1.68  -999.99     1.68      0.0000      0.00 LINEAR  4.1240E-03    -83.63  0.0000E+00      0.00
   92.00      0.00      1.68  -999.99     1.68      0.0000     -0.00 LINEAR  4.1237E-03    -95.57  0.0000E+00      0.00
   96.00      0.00      1.63  -999.99     1.63      0.0000     -0.00 LINEAR  4.1022E-03   -107.92  0.0000E+00      0.00
  100.00      0.00      1.54  -999.99     1.54      0.0000     -0.00 LINEAR  4.0597E-03   -120.63  0.0000E+00      0.00
  104.00      0.00      1.41  -999.99     1.41      0.0000     -0.00 LINEAR  3.9965E-03   -133.63  0.0000E+00      0.00
  108.00      0.00      1.22  -999.99     1.22      0.0000     -0.00 LINEAR  3.9130E-03   -146.86  0.0000E+00      0.00
  112.00      0.00      0.99  -999.99     0.99      0.0000     -0.00 LINEAR  3.8098E-03   -160.25  0.0000E+00      0.00
  116.00      0.00      0.71  -999.99     0.71      0.0000     -0.00 LINEAR  3.6877E-03   -173.73  0.0000E+00      0.00
  120.00      0.00      0.37  -999.99     0.37      0.0000     -0.00 LINEAR  3.5473E-03    172.75  0.0000E+00      0.00
  124.00      0.00     -0.02  -999.99    -0.02      0.0000     -0.00 LINEAR  3.3897E-03    159.27  0.0000E+00      0.00
  128.00      0.00     -0.48  -999.99    -0.48      0.0000     -0.00 LINEAR  3.2159E-03    145.88  0.0000E+00      0.00
  132.00      0.00     -1.01  -999.99    -1.01      0.0000     -0.00 LINEAR  3.0269E-03    132.66  0.0000E+00      0.00
  136.00      0.00     -1.61  -999.99    -1.61      0.0000     -0.00 LINEAR  2.8238E-03    119.67  0.0000E+00      0.00
  140.00      0.00     -2.30  -999.99    -2.30      0.0000     -0.00 LINEAR  2.6078E-03    106.97  0.0000E+00      0.00
  144.00      0.00     -3.10  -999.99    -3.10      0.0000     -0.00 LINEAR  2.3801E-03     94.63  0.0000E+00      0.00
  148.00      0.00     -4.01  -999.99    -4.01      0.0000      0.00 LINEAR  2.1418E-03     82.70  0.0000E+00      0.00
  152.00      0.00     -5.08  -999.99    -5.08      0.0000      0.00 LINEAR  1.8943E-03     71.24  0.0000E+00      0.00
  156.00      0.00     -6.34  -999.99    -6.34      0.0000      0.00 LINEAR  1.6386E-03     60.31  0.0000E+00      0.00
  160.00      0.00     -7.86  -999.99    -7.86      0.0000      0.00 LINEAR  1.3760E-03     49.96  0.0000E+00      0.00
  164.00      0.00     -9.74  -999.99    -9.74      0.0000      0.00 LINEAR  1.1076E-03     40.24  0.0000E+00      0.00
  168.00      0.00    -12.20  -999.99   -12.20      0.0000      0.00 LINEAR  8.3470E-04     31.20  0.0000E+00      0.00
  172.00      0.00    -15.69  -999.99   -15.69      0.0000      0.00 LINEAR  5.5836E-04     22.89  0.0000E+00      0.00
  176.00      0.00    -21.69  -999.99   -21.69      0.0000      0.00 LINEAR  2.7975E-04     15.33  0.0000E+00      0.00
  180.00      0.00   -999.99  -999.99  -999.99      0.0000      0.00         4.0927E-14   -171.42  0.0000E+00      0.00
    0.00      4.00   -999.99  -999.99  -999.99      0.0000      0.00         0.0000E+00      0.00  0.0000E+00      0.00
    4.00      4.00    -21.68  -999.99   -21.68      0.0000      0.00 LINEAR  2.8029E-04     -3.15  0.0000E+00      0.00
    8.00      4.00    -15.67  -999.99   -15.67      0.0000      0.00 LINEAR  5.5944E-04      2.22  0.0000E+00      0.00
   12.00      4.00    -12.18  -999.99   -12.18      0.0000      0.00 LINEAR  8.3629E-04      6.70  0.0000E+00      0.00
   16.00      4.00     -9.72  -999.99    -9.72      0.0000      0.00 LINEAR  1.1097E-03     10.27  0.0000E+00      0.00
   20.00      4.00     -7.84  -999.99    -7.84      0.0000      0.00 LINEAR  1.3785E-03     12.92  0.0000E+00      0.00
   24.00      4.00     -6.32  -999.99    -6.32      0.0000      0.00 LINEAR  1.6415E-03     14.62  0.0000E+00      0.00
   28.00      4.00     -5.06  -999.99    -5.06      0.0000      0.00 LINEAR  1.8975E-03     15.37  0.0000E+00      0.00
   32.00      4.00     -4.00  -999.99    -4.00      0.0000      0.00 LINEAR  2.1453E-03     15.16  0.0000E+00      0.00
   36.00      4.00     -3.08  -999.99    -3.08      0.0000      0.00 LINEAR  2.3838E-03     14.01  0.0000E+00      0.00
   40.00      4.00     -2.29  -999.99    -2.29      0.0000      0.00 LINEAR  2.6117E-03     11.91  0.0000E+00      0.00
   44.00      4.00     -1.60  -999.99    -1.60      0.0000      0.00 LINEAR  2.8277E-03      8.86  0.0000E+00      0.00
   48.00      4.00     -1.00  -999.99    -1.00      0.0000      0.00 LINEAR  3.0308E-03      4.90  0.0000E+00      0.00
   52.00      4.00     -0.47  -999.99    -0.47      0.0000      0.00 LINEAR  3.2197E-03      0.03  0.0000E+00      0.00
   56.00      4.00     -0.01  -999.99    -0.01      0.0000      0.00 LINEAR  3.3934E-03     -5.71  0.0000E+00      0.00
   60.00      4.00      0.38  -999.99     0.38      0.0000      0.00 LINEAR  3.5507E-03    -12.31  0.0000E+00      0.00
   64.00      4.00      0.71  -999.99     0.71      0.0000      0.00 LINEAR  3.6908E-03    -19.73  0.0000E+00      0.00
   68.00      4.00      1.00  -999.99     1.00      0.0000      0.00 LINEAR  3.8126E-03    -27.93  0.0000E+00      0.00
   72.00      4.00      1.23  -999.99     1.23      0.0000      0.00 LINEAR  3.9154E-03    -36.87  0.0000E+00      0.00
   76.00      4.00      1.41  -999.99     1.41      0.0000      0.00 LINEAR  3.9984E-03    -46.52  0.0000E+00      0.00
   80.00      4.00      1.55  -999.99     1.55      0.0000      0.00 LINEAR  4.0611E-03    -56.81  0.0000E+00      0.00
   84.00      4.00      1.63  -999.99     1.63      0.0000      0.00 LINEAR  4.1031E-03    -67.71  0.0000E+00      0.00
   88.00      4.00      1.68  -999.99     1.68      0.0000      0.00 LINEAR  4.1240E-03    -79.16  0.0000E+00      0.00
   92.00      4.00      1.68  -999.99     1.68      0.0000     -0.00 LINEAR  4.1237E-03    -91.10  0.0000E+00      0.00
   96.00      4.00      1.63  -999.99     1.63      0.0000     -0.00 LINEAR  4.1022E-03   -103.48  0.0000E+00      0.00
  100.00      4.00      1.54  -999.99     1.54      0.0000     -0.00 LINEAR  4.0597E-03   -116.23  0.0000E+00      0.00
  104.00      4.00      1.41  -999.99     1.41      0.0000     -0.00 LINEAR  3.9965E-03   -129.29  0.0000E+00      0.00
  108.00      4.00      1.22  -999.99     1.22      0.0000     -0.00 LINEAR  3.9130E-03   -142.61  0.0000E+00      0.00
  112.00      4.00      0.99  -999.99     0.99      0.0000     -0.00 LINEAR  3.8098E-03   -156.10  0.0000E+00      0.00
  116.00      4.00      0.71  -999.99     0.71      0.0000     -0.00 LINEAR  3.6877E-03   -169.71  0.0000E+00      0.00
  120.00      4.00      0.37  -999.99     0.37      0.0000     -0.00 LINEAR  3.5473E-03    176.62  0.0000E+00      0.00
  124.00      4.00     -0.02  -999.99    -0.02      0.0000     -0.00 LINEAR  3.3897E-03    162.97  0.0000E+00      0.00
  128.00      4.00     -0.48  -999.99    -0.48      0.0000     -0.00 LINEAR  3.2159E-03    149.40  0.0000E+00      0.00
  132.00      4.00     -1.01  -999.99    -1.01      0.0000     -0.00 LINEAR  3.0269E-03    135.98  0.0000E+00      0.00
  136.00      4.00     -1.61  -999.99    -1.61      0.0000     -0.00 LINEAR  2.8238E-03    122.77  0.0000E+00      0.00
  140.00      4.00     -2.30  -999.99    -2.30      0.0000     -0.00 LINEAR  2.6078E-03    109.84  0.0000E+00      0.00
  144.00      4.00     -3.10  -999.99    -3.10      0.0000     -0.00 LINEAR  2.3801E-03     97.25  0.0000E+00      0.00
  148.00      4.00     -4.01  -999.99    -4.01      0.0000      0.00 LINEAR  2.1418E-03     85.07  0.0000E+00      0.00
  152.00      4.00     -5.08  -999.99    -5.08      0.0000      0.00 LINEAR  1.8943E-03     73.34  0.0000E+00      0.00
  156.00      4.00     -6.34  -999.99    -6.34      0.0000      0.00 LINEAR  1.6386E-03     62.13  0.0000E+00      0.00
  160.00      4.00     -7.86  -999.99    -7.86      0.0000      0.00 LINEAR  1.3760E-03     51.49  0.0000E+00      0.00
  164.00      4.00     -9.74  -999.99    -9.74      0.0000      0.00 LINEAR  1.1076E-03     41.48  0.0000E+00      0.00
  168.00      4.00    -12.20  -999.99   -12.20      0.0000      0.00 LINEAR  8.3470E-04     32.13  0.0000E+00      0.00
  172.00      4.00    -15.69  -999.99   -15.69      0.0000      0.00 LINEAR  5.5836E-04     23.51  0.0000E+00      0.00
  176.00      4.00    -21.69  -999.99   -21.69      0.0000      0.00 LINEAR  2.7975E-04     15.64  0.0000E+00      0.00
  180.00      4.00   -999.99  -999.99  -999.99      0.0000      0.00         4.0927E-14   -171.42  0.0000E+00      0.00
    0.00      8.00   -999.99  -999.99  -999.99      0.0000      0.00         0.0000E+00      0.00  0.0000E+00      0.00
    4.00      8.00    -21.68  -999.99   -21.68      0.0000      0.00 LINEAR  2.8029E-04     -2.87  0.0000E+00      0.00
    8.00      8.00    -15.67  -999.99   -15.67      0.0000      0.00 LINEAR  5.5944E-04      2.78  0.0000E+00      0.00
   12.00      8.00    -12.18  -999.99   -12.18      0.0000      0.00 LINEAR  8.3629E-04      7.54  0.0000E+00      0.00
   16.00      8.00     -9.72  -999.99    -9.72      0.0000      0.00 LINEAR  1.1097E-03     11.38  0.0000E+00      0.00
   20.00      8.00     -7.84  -999.99    -7.84      0.0000      0.00 LINEAR  1.3785E-03     14.29  0.0000E+00      0.00
   24.00      8.00     -6.32  -999.99    -6.32      0.0000      0.00 LINEAR  1.6415E-03     16.25  0.0000E+00      0.00
   28.00      8.00     -5.06  -999.99    -5.06      0.0000      0.00 LINEAR  1.8975E-03     17.25  0.0000E+00      0.00
   32.00      8.00     -4.00  -999.99    -4.00      0.0000      0.00 LINEAR  2.1453E-03     17.29  0.0000E+00      0.00
   36.00      8.00     -3.08  -999.99    -3.08      0.0000      0.00 LINEAR  2.3838E-03     16.36  0.0000E+00      0.00
   40.00      8.00     -2.29  -999.99    -2.29      0.0000      0.00 LINEAR  2.6117E-03     14.48  0.0000E+00      0.00
   44.00      8.00     -1.60  -999.99    -1.60      0.0000      0.00 LINEAR  2.8277E-03     11.65  0.0000E+00      0.00
   48.00      8.00     -1.00  -999.99    -1.00      0.0000      0.00 LINEAR  3.0308E-03      7.88  0.0000E+00      0.00
   52.00      8.00     -0.47  -999.99    -0.47      0.0000      0.00 LINEAR  3.2197E-03      3.19  0.0000E+00      0.00
   56.00      8.00     -0.01  -999.99    -0.01      0.0000      0.00 LINEAR  3.3934E-03     -2.39  0.0000E+00      0.00
   60.00      8.00      0.38  -999.99     0.38      0.0000      0.00 LINEAR  3.5507E-03     -8.84  0.0000E+00      0.00
   64.00      8.00      0.71  -999.99     0.71      0.0000      0.00 LINEAR  3.6908E-03    -16.13  0.0000E+00      0.00
   68.00      8.00      1.00  -999.99     1.00      0.0000      0.00 LINEAR  3.8126E-03    -24.21  0.0000E+00      0.00
   72.00      8.00      1.23  -999.99     1.23      0.0000      0.00 LINEAR  3.9154E-03    -33.06  0.0000E+00      0.00
   76.00      8.00      1.41  -999.99     1.41      0.0000      0.00 LINEAR  3.9984E-03    -42.63  0.0000E+00      0.00
   80.00      8.00      1.55  -999.99     1.55      0.0000      0.00 LINEAR  4.0611E-03    -52.87  0.0000E+00      0.00
   84.00      8.00      1.63  -999.99     1.63      0.0000      0.00 LINEAR  4.1031E-03    -63.73  0.0000E+00      0.00
   88.00      8.00      1.68  -999.99     1.68      0.0000      0.00 LINEAR  4.1240E-03    -75.16  0.0000E+00      0.00
   92.00      8.00      1.68  -999.99     1.68      0.0000      0.00 LINEAR  4.1237E-03    -87.10  0.0000E+00      0.00
   96.00      8.00      1.63  -999.99     1.63      0.0000     -0.00 LINEAR  4.1022E-03    -99.50  0.0000E+00      0.00
  100.00      8.00      1.54  -999.99     1.54      0.0000     -0.00 LINEAR  4.0597E-03   -112.29  0.0000E+00      0.00
  104.00      8.00      1.41  -999.99     1.41      0.0000     -0.00 LINEAR  3.9965E-03   -125.41  0.0000E+00      0.00
  108.00      8.00      1.22  -999.99     1.22      0.0000     -0.00 LINEAR  3.9130E-03   -138.80  0.0000E+00      0.00
  112.00      8.00      0.99  -999.99     0.99      0.0000     -0.00 LINEAR  3.8098E-03   -152.39  0.0000E+00      0.00
  116.00      8.00      0.71  -999.99     0.71      0.0000     -0.00 LINEAR  3.6877E-03   -166.12  0.0000E+00      0.00
  120.00      8.00      0.37  -999.99     0.37      0.0000     -0.00 LINEAR  3.5473E-03   -179.91  0.0000E+00      0.00
  124.00      8.00     -0.02  -999.99    -0.02      0.0000     -0.00 LINEAR  3.3897E-03    166.29  0.0000E+00      0.00
  128.00      8.00     -0.48  -999.99    -0.48      0.0000     -0.00 LINEAR  3.2159E-03    152.56  0.0000E+00      0.00
  132.00      8.00     -1.01  -999.99    -1.01      0.0000     -0.00 LINEAR  3.0269E-03    138.96  0.0000E+00      0.00
  136.00      8.00     -1.61  -999.99    -1.61      0.0000     -0.00 LINEAR  2.8238E-03    125.56  0.0000E+00      0.00
  140.00      8.00     -2.30  -999.99    -2.30      0.0000     -0.00 LINEAR  2.6078E-03    112.42  0.0000E+00      0.00
  144.00      8.00     -3.10  -999.99    -3.10      0.0000     -0.00 LINEAR  2.3801E-03     99.61  0.0000E+00      0.00
  148.00      8.00     -4.01  -999.99    -4.01      0.0000      0.00 LINEAR  2.1418E-03     87.19  0.0000E+00      0.00
  152.00      8.00     -5.08  -999.99    -5.08      0.0000      0.00 LINEAR  1.8943E-03     75.22  0.0000E+00      0.00
  156.00      8.00     -6.34  -999.99    -6.34      0.0000      0.00 LINEAR  1.6386E-03     63.76  0.0000E+00      0.00
  160.00      8.00     -7.86  -999.99    -7.86      0.0000      0.00 LINEAR  1.3760E-03     52.86  0.0000E+00      0.00
  164.00      8.00     -9.74  -999.99    -9.74      0.0000      0.00 LINEAR  1.1076E-03     42.58  0.0000E+00      0.00
  168.00      8.00    -12.20  -999.99   -12.20      0.0000      0.00 LINEAR  8.3470E-04     32.97  0.0000E+00      0.00
  172.00      8.00    -15.69  -999.99   -15.69      0.0000      0.00 LINEAR  5.5836E-04     24.07  0.0000E+00      0.00
  176.00      8.00    -21.69  -999.99   -21.69      0.0000      0.00 LINEAR  2.7975E-04     15.92  0.0000E+00      0.00
  180.00      8.00   -999.99  -999.99  -999.99      0.0000      0.00         4.0927E-14   -171.42  0.0000E+00      0.00
    0.00     12.00   -999.99  -999.99  -999.99      0.0000      0.00         0.0000E+00      0.00  0.0000E+00      0.00
    4.00     12.00    -21.68  -999.99   -21.68      0.0000      0.00 LINEAR  2.8029E-04     -2.62  0.0000E+00      0.00
    8.00     12.00    -15.67  -999.99   -15.67      0.0000      0.00 LINEAR  5.5944E-04      3.27  0.0000E+00      0.00
   12.00     12.00    -12.18  -999.99   -12.18      0.0000      0.00 LINEAR  8.3629E-04      8.27  0.0000E+00      0.00
   16.00     12.00     -9.72  -999.99    -9.72      0.0000      0.00 LINEAR  1.1097E-03     12.35  0.0000E+00      0.00
   20.00     12.00     -7.84  -999.99    -7.84      0.0000      0.00 LINEAR  1.3785E-03     15.49  0.0000E+00      0.00
   24.00     12.00     -6.32  -999.99    -6.32      0.0000      0.00 LINEAR  1.6415E-03     17.68  0.0000E+00      0.00
   28.00     12.00     -5.06  -999.99    -5.06      0.0000      0.00 LINEAR  1.8975E-03     18.90  0.0000E+00      0.00
   32.00     12.00     -4.00  -999.99    -4.00      0.0000      0.00 LINEAR  2.1453E-03     19.15  0.0000E+00      0.00
   36.00     12.00     -3.08  -999.99    -3.08      0.0000      0.00 LINEAR  2.3838E-03     18.43  0.0000E+00      0.00
   40.00     12.00     -2.29  -999.99    -2.29      0.0000      0.00 LINEAR  2.6117E-03     16.74  0.0000E+00      0.00
   44.00     12.00     -1.60  -999.99    -1.60      0.0000      0.00 LINEAR  2.8277E-03     14.09  0.0000E+00      0.00
   48.00     12.00     -1.00  -999.99    -1.00      0.0000      0.00 LINEAR  3.0308E-03     10.49  0.0000E+00      0.00
   52.00     12.00     -0.47  -999.99    -0.47      0.0000      0.00 LINEAR  3.2197E-03      5.97  0.0000E+00      0.00
   56.00     12.00     -0.01  -999.99    -0.01      0.0000      0.00 LINEAR  3.3934E-03      0.53  0.0000E+00      0.00
   60.00     12.00      0.38  -999.99     0.38      0.0000      0.00 LINEAR  3.5507E-03     -5.79  0.0000E+00      0.00
   64.00     12.00      0.71  -999.99     0.71      0.0000      0.00 LINEAR  3.6908E-03    -12.96  0.0000E+00      0.00
   68.00     12.00      1.00  -999.99     1.00      0.0000      0.00 LINEAR  3.8126E-03    -20.95  0.0000E+00      0.00
   72.00     12.00      1.23  -999.99     1.23      0.0000      0.00 LINEAR  3.9154E-03    -29.71  0.0000E+00      0.00
   76.00     12.00      1.41  -999.99     1.41      0.0000      0.00 LINEAR  3.9984E-03    -39.21  0.0000E+00      0.00
   80.00     12.00      1.55  -999.99     1.55      0.0000      0.00 LINEAR  4.0611E-03    -49.40  0.0000E+00      0.00
   84.00     12.00      1.63  -999.99     1.63      0.0000      0.00 LINEAR  4.1031E-03    -60.23  0.0000E+00      0.00
   88.00     12.00      1.68  -999.99     1.68      0.0000      0.00 LINEAR  4.1240E-03    -71.64  0.0000E+00      0.00
   92.00     12.00      1.68  -999.99     1.68      0.0000      0.00 LINEAR  4.1237E-03    -83.58  0.0000E+00      0.00
   96.00     12.00      1.63  -999.99     1.63      0.0000     -0.00 LINEAR  4.1022E-03    -95.99  0.0000E+00      0.00
  100.00     12.00      1.54  -999.99     1.54      0.0000     -0.00 LINEAR  4.0597E-03   -108.82  0.0000E+00      0.00
  104.00     12.00      1.41  -999.99     1.41      0.0000     -0.00 LINEAR  3.9965E-03   -121.99  0.0000E+00      0.00
  108.00     12.00      1.22  -999.99     1.22      0.0000     -0.00 LINEAR  3.9130E-03   -135.45  0.0000E+00      0.00
  112.00     12.00      0.99  -999.99     0.99      0.0000     -0.00 LINEAR  3.8098E-03   -149.12  0.0000E+00      0.00
  116.00     12.00      0.71  -999.99     0.71      0.0000     -0.00 LINEAR  3.6877E-03   -162.95  0.0000E+00      0.00
  120.00     12.00      0.37  -999.99     0.37      0.0000     -0.00 LINEAR  3.5473E-03   -176.86  0.0000E+00      0.00
  124.00     12.00     -0.02  -999.99    -0.02      0.0000     -0.00 LINEAR  3.3897E-03    169.21  0.0000E+00      0.00
  128.00     12.00     -0.48  -999.99    -0.48      0.0000     -0.00 LINEAR  3.2159E-03    155.33  0.0000E+00      0.00
  132.00     12.00     -1.01  -999.99    -1.01      0.0000     -0.00 LINEAR  3.0269E-03    141.58  0.0000E+00      0.00
  136.00     12.00     -1.61  -999.99    -1.61      0.0000     -0.00 LINEAR  2.8238E-03    128.00  0.0000E+00      0.00
  140.00     12.00     -2.30  -999.99    -2.30      0.0000     -0.00 LINEAR  2.6078E-03    114.68  0.0000E+00      0.00
  144.00     12.00     -3.10  -999.99    -3.10      0.0000     -0.00 LINEAR  2.3801E-03    101.68  0.0000E+00      0.00
  148.00     12.00     -4.01  -999.99    -4.01      0.0000      0.00 LINEAR  2.1418E-03     89.05  0.0000E+00      0.00
  152.00     12.00     -5.08  -999.99    -5.08      0.0000      0.00 LINEAR  1.8943E-03     76.87  0.0000E+00      0.00
  156.00     12.00     -6.34  -999.99    -6.34      0.0000      0.00 LINEAR  1.6386E-03     65.19  0.0000E+00      0.00
  160.00     12.00     -7.86  -999.99    -7.86      0.0000      0.00 LINEAR  1.3760E-03     54.06  0.0000E+00      0.00
  164.00     12.00     -9.74  -999.99    -9.74      0.0000      0.00 LINEAR  1.1076E-03     43.55  0.0000E+00      0.00
  168.00     12.00    -12.20  -999.99   -12.20      0.0000      0.00 LINEAR  8.3470E-04     33.70  0.0000E+00      0.00
  172.00     12.00    -15.69  -999.99   -15.69      0.0000      0.00 LINEAR  5.5836E-04     24.56  0.0000E+00      0.00
  176.00     12.00    -21.69  -999.99   -21.69      0.0000      0.00 LINEAR  2.7975E-04     16.17  0.0000E+00      0.00
  180.00     12.00   -999.99  -999.99  -999.99      0.0000      0.00         4.0927E-14   -171.42  0.0000E+00      0.00
    0.00     16.00   -999.99  -999.99  -999.99      0.0000      0.00         0.0000E+00      0.00  0.0000E+00      0.00
    4.00     16.00    -21.68  -999.99   -21.68      0.0000      0.00 LINEAR  2.8029E-04     -2.41  0.0000E+00      0.00
    8.00     16.00    -15.67  -999.99   -15.67      0.0000      0.00 LINEAR  5.5944E-04      3.69  0.0000E+00      0.00
   12.00     16.00    -12.18  -999.99   -12.18      0.0000      0.00 LINEAR  8.3629E-04      8.90  0.0000E+00      0.00
   16.00     16.00     -9.72  -999.99    -9.72      0.0000      0.00 LINEAR  1.1097E-03     13.18  0.0000E+00      0.00
   20.00     16.00     -7.84  -999.99    -7.84      0.0000      0.00 LINEAR  1.3785E-03     16.52  0.0000E+00      0.00
   24.00     16.00     -6.32  -999.99    -6.32      0.0000      0.00 LINEAR  1.6415E-03     18.91  0.0000E+00      0.00
   28.00     16.00     -5.06  -999.99    -5.06      0.0000      0.00 LINEAR  1.8975E-03     20.32  0.0000E+00      0.00
   32.00     16.00     -4.00  -999.99    -4.00      0.0000      0.00 LINEAR  2.1453E-03     20.75  0.0000E+00      0.00
   36.00     16.00     -3.08  -999.99    -3.08      0.0000      0.00 LINEAR  2.3838E-03     20.21  0.0000E+00      0.00
   40.00     16.00     -2.29  -999.99    -2.29      0.0000      0.00 LINEAR  2.6117E-03     18.68  0.0000E+00      0.00
   44.00     16.00     -1.60  -999.99    -1.60      0.0000      0.00 LINEAR  2.8277E-03     16.19  0.0000E+00      0.00
   48.00     16.00     -1.00  -999.99    -1.00      0.0000      0.00 LINEAR  3.0308E-03     12.74  0.0000E+00      0.00
   52.00     16.00     -0.47  -999.99    -0.47      0.0000      0.00 LINEAR  3.2197E-03      8.35  0.0000E+00      0.00
   56.00     16.00     -0.01  -999.99    -0.01      0.0000      0.00 LINEAR  3.3934E-03      3.03  0.0000E+00      0.00
   60.00     16.00      0.38  -999.99     0.38      0.0000      0.00 LINEAR  3.5507E-03     -3.18  0.0000E+00      0.00
   64.00     16.00      0.71  -999.99     0.71      0.0000      0.00 LINEAR  3.6908E-03    -10.25  0.0000E+00      0.00
   68.00     16.00      1.00  -999.99     1.00      0.0000      0.00 LINEAR  3.8126E-03    -18.15  0.0000E+00      0.00
   72.00     16.00      1.23  -999.99     1.23      0.0000      0.00 LINEAR  3.9154E-03    -26.84  0.0000E+00      0.00
   76.00     16.00      1.41  -999.99     1.41      0.0000      0.00 LINEAR  3.9984E-03    -36.28  0.0000E+00      0.00
   80.00     16.00      1.55  -999.99     1.55      0.0000      0.00 LINEAR  4.0611E-03    -46.43  0.0000E+00      0.00
   84.00     16.00      1.63  -999.99     1.63      0.0000      0.00 LINEAR  4.1031E-03    -57.22  0.0000E+00      0.00
   88.00     16.00      1.68  -999.99     1.68      0.0000      0.00 LINEAR  4.1240E-03    -68.62  0.0000E+00      0.00
   92.00     16.00      1.68  -999.99     1.68      0.0000      0.00 LINEAR  4.1237E-03    -80.56  0.0000E+00      0.00
   96.00     16.00      1.63  -999.99     1.63      0.0000     -0.00 LINEAR  4.1022E-03    -92.99  0.0000E+00      0.00
  100.00     16.00      1.54  -999.99     1.54      0.0000     -0.00 LINEAR  4.0597E-03   -105.84  0.0000E+00      0.00
  104.00     16.00      1.41  -999.99     1.41      0.0000     -0.00 LINEAR  3.9965E-03   -119.06  0.0000E+00      0.00
  108.00     16.00      1.22  -999.99     1.22      0.0000     -0.00 LINEAR  3.9130E-03   -132.58  0.0000E+00      0.00
  112.00     16.00      0.99  -999.99     0.99      0.0000     -0.00 LINEAR  3.8098E-03   -146.32  0.0000E+00      0.00
  116.00     16.00      0.71  -999.99     0.71      0.0000     -0.00 LINEAR  3.6877E-03   -160.24  0.0000E+00      0.00
  120.00     16.00      0.37  -999.99     0.37      0.0000     -0.00 LINEAR  3.5473E-03   -174.25  0.0000E+00      0.00
  124.00     16.00     -0.02  -999.99    -0.02      0.0000     -0.00 LINEAR  3.3897E-03    171.71  0.0000E+00      0.00
  128.00     16.00     -0.48  -999.99    -0.48      0.0000     -0.00 LINEAR  3.2159E-03    157.71  0.0000E+00      0.00
  132.00     16.00     -1.01  -999.99    -1.01      0.0000     -0.00 LINEAR  3.0269E-03    143.82  0.0000E+00      0.00
  136.00     16.00     -1.61  -999.99    -1.61      0.0000     -0.00 LINEAR  2.8238E-03    130.10  0.0000E+00      0.00
  140.00     16.00     -2.30  -999.99    -2.30      0.0000     -0.00 LINEAR  2.6078E-03    116.62  0.0000E+00      0.00
  144.00     16.00     -3.10  -999.99    -3.10      0.0000     -0.00 LINEAR  2.3801E-03    103.45  0.0000E+00      0.00
  148.00     16.00     -4.01  -999.99    -4.01      0.0000     -0.00 LINEAR  2.1418E-03     90.65  0.0000E+00      0.00
  152.00     16.00     -5.08  -999.99    -5.08      0.0000      0.00 LINEAR  1.8943E-03     78.29  0.0000E+00      0.00
  156.00     16.00     -6.34  -999.99    -6.34      0.0000      0.00 LINEAR  1.6386E-03     66.42  0.0000E+00      0.00
  160.00     16.00     -7.86  -999.99    -7.86      0.0000      0.00 LINEAR  1.3760E-03     55.10  0.0000E+00      0.00
  164.00     16.00     -9.74  -999.99    -9.74      0.0000      0.00 LINEAR  1.1076E-03     44.38  0.0000E+00      0.00
  168.00     16.00    -12.20  -999.99   -12.20      0.0000      0.00 LINEAR  8.3470E-04     34.33  0.0000E+00      0.00
  172.00     16.00    -15.69  -999.99   -15.69      0.0000      0.00 LINEAR  5.5836E-04     24.98  0.0000E+00      0.00
  176.00     16.00    -21.69  -999.99   -21.69      0.0000      0.00 LINEAR  2.7975E-04     16.38  0.0000E+00      0.00
  180.00     16.00   -999.99  -999.99  -999.99      0.0000      0.00         4.0927E-14   -171.42  0.0000E+00      0.00
    0.00     20.00   -999.99  -999.99  -999.99      0.0000      0.00         0.0000E+00      0.00  0.0000E+00      0.00
    4.00     20.00    -21.68  -999.99   -21.68      0.0000      0.00 LINEAR  2.8029E-04     -2.24  0.0000E+00      0.00
    8.00     20.00    -15.67  -999.99   -15.67      0.0000      0.00 LINEAR  5.5944E-04      4.04  0.0000E+00      0.00
   12.00     20.00    -12.18  -999.99   -12.18      0.0000      0.00 LINEAR  8.3629E-04      9.42  0.0000E+00      0.00
   16.00     20.00     -9.72  -999.99    -9.72      0.0000      0.00 LINEAR  1.1097E-03     13.87  0.0000E+00      0.00
   20.00     20.00     -7.84  -999.99    -7.84      0.0000      0.00 LINEAR  1.3785E-03     17.38  0.0000E+00      0.00
   24.00     20.00     -6.32  -999.99    -6.32      0.0000      0.00 LINEAR  1.6415E-03     19.93  0.0000E+00      0.00
   28.00     20.00     -5.06  -999.99    -5.06      0.0000      0.00 LINEAR  1.8975E-03     21.49  0.0000E+00      0.00
   32.00     20.00     -4.00  -999.99    -4.00      0.0000      0.00 LINEAR  2.1453E-03     22.08  0.0000E+00      0.00
   36.00     20.00     -3.08  -999.99    -3.08      0.0000      0.00 LINEAR  2.3838E-03     21.68  0.0000E+00      0.00
   40.00     20.00     -2.29  -999.99    -2.29      0.0000      0.00 LINEAR  2.6117E-03     20.29  0.0000E+00      0.00
   44.00     20.00     -1.60  -999.99    -1.60      0.0000      0.00 LINEAR  2.8277E-03     17.93  0.0000E+00      0.00
   48.00     20.00     -1.00  -999.99    -1.00      0.0000      0.00 LINEAR  3.0308E-03     14.60  0.0000E+00      0.00
   52.00     20.00     -0.47  -999.99    -0.47      0.0000      0.00 LINEAR  3.2197E-03     10.32  0.0000E+00      0.00
   56.00     20.00     -0.01  -999.99    -0.01      0.0000      0.00 LINEAR  3.3934E-03      5.11  0.0000E+00      0.00
   60.00     20.00      0.38  -999.99     0.38      0.0000      0.00 LINEAR  3.5507E-03     -1.01  0.0000E+00      0.00
   64.00     20.00      0.71  -999.99     0.71      0.0000      0.00 LINEAR  3.6908E-03     -8.00  0.0000E+00      0.00
   68.00     20.00      1.00  -999.99     1.00      0.0000      0.00 LINEAR  3.8126E-03    -15.83  0.0000E+00      0.00
   72.00     20.00      1.23  -999.99     1.23      0.0000      0.00 LINEAR  3.9154E-03    -24.46  0.0000E+00      0.00
   76.00     20.00      1.41  -999.99     1.41      0.0000      0.00 LINEAR  3.9984E-03    -33.85  0.0000E+00      0.00
   80.00     20.00      1.55  -999.99     1.55      0.0000      0.00 LINEAR  4.0611E-03    -43.96  0.0000E+00      0.00
   84.00     20.00      1.63  -999.99     1.63      0.0000      0.00 LINEAR  4.1031E-03    -54.73  0.0000E+00      0.00
   88.00     20.00      1.68  -999.99     1.68      0.0000      0.00 LINEAR  4.1240E-03    -66.12  0.0000E+00      0.00
   92.00     20.00      1.68  -999.99     1.68      0.0000      0.00 LINEAR  4.1237E-03    -78.06  0.0000E+00      0.00
   96.00     20.00      1.63  -999.99     1.63      0.0000     -0.00 LINEAR  4.1022E-03    -90.50  0.0000E+00      0.00
  100.00     20.00      1.54  -999.99     1.54      0.0000     -0.00 LINEAR  4.0597E-03   -103.38  0.0000E+00      0.00
  104.00     20.00      1.41  -999.99     1.41      0.0000     -0.00 LINEAR  3.9965E-03   -116.63  0.0000E+00      0.00
  108.00     20.00      1.22  -999.99     1.22      0.0000     -0.00 LINEAR  3.9130E-03   -130.19  0.0000E+00      0.00
  112.00     20.00      0.99  -999.99     0.99      0.0000     -0.00 LINEAR  3.8098E-03   -144.00  0.0000E+00      0.00
  116.00     20.00      0.71  -999.99     0.71      0.0000     -0.00 LINEAR  3.6877E-03   -157.99  0.0000E+00      0.00
  120.00     20.00      0.37  -999.99     0.37      0.0000     -0.00 LINEAR  3.5473E-03   -172.08  0.0000E+00      0.00
  124.00     20.00     -0.02  -999.99    -0.02      0.0000     -0.00 LINEAR  3.3897E-03    173.79  0.0000E+00      0.00
  128.00     20.00     -0.48  -999.99    -0.48      0.0000     -0.00 LINEAR  3.2159E-03    159.69  0.0000E+00      0.00
  132.00     20.00     -1.01  -999.99    -1.01      0.0000     -0.00 LINEAR  3.0269E-03    145.68  0.0000E+00      0.00
  136.00     20.00     -1.61  -999.99    -1.61      0.0000     -0.00 LINEAR  2.8238E-03    131.84  0.0000E+00      0.00
  140.00     20.00     -2.30  -999.99    -2.30      0.0000     -0.00 LINEAR  2.6078E-03    118.23  0.0000E+00      0.00
  144.00     20.00     -3.10  -999.99    -3.10      0.0000     -0.00 LINEAR  2.3801E-03    104.93  0.0000E+00      0.00
  148.00     20.00     -4.01  -999.99    -4.01      0.0000     -0.00 LINEAR  2.1418E-03     91.98  0.0000E+00      0.00
  152.00     20.00     -5.08  -999.99    -5.08      0.0000      0.00 LINEAR  1.8943E-03     79.47  0.0000E+00      0.00
  156.00     20.00     -6.34  -999.99    -6.34      0.0000      0.00 LINEAR  1.6386E-03     67.44  0.0000E+00      0.00
  160.00     20.00     -7.86  -999.99    -7.86      0.0000      0.00 LINEAR  1.3760E-03     55.95  0.0000E+00      0.00
  164.00     20.00     -9.74  -999.99    -9.74      0.0000      0.00 LINEAR  1.1076E-03     45.07  0.0000E+00      0.00
  168.00     20.00    -12.20  -999.99   -12.20      0.0000      0.00 LINEAR  8.3470E-04     34.85  0.0000E+00      0.00
  172.00     20.00    -15.69  -999.99   -15.69      0.0000      0.00 LINEAR  5.5836E-04     25.33  0.0000E+00      0.00
  176.00     20.00    -21.69  -999.99   -21.69      0.0000      0.00 LINEAR  2.7975E-04     16.56  0.0000E+00      0.00
  180.00     20.00   -999.99  -999.99  -999.99      0.0000      0.00         4.0927E-14   -171.42  0.0000E+00      0.00
    0.00     24.00   -999.99  -999.99  -999.99      0.0000      0.00         0.0000E+00      0.00  0.0000E+00      0.00
    4.00     24.00    -21.68  -999.99   -21.68      0.0000      0.00 LINEAR  2.8029E-04     -2.10  0.0000E+00      0.00
    8.00     24.00    -15.67  -999.99   -15.67      0.0000      0.00 LINEAR  5.5944E-04      4.31  0.0000E+00      0.00
   12.00     24.00    -12.18  -999.99   -12.18      0.0000      0.00 LINEAR  8.3629E-04      9.83  0.0000E+00      0.00
   16.00     24.00     -9.72  -999.99    -9.72      0.0000      0.00 LINEAR  1.1097E-03     14.42  0.0000E+00      0.00
   20.00     24.00     -7.84  -999.99    -7.84      0.0000      0.00 LINEAR  1.3785E-03     18.06  0.0000E+00      0.00
   24.00     24.00     -6.32  -999.99    -6.32      0.0000      0.00 LINEAR  1.6415E-03     20.73  0.0000E+00      0.00
   28.00     24.00     -5.06  -999.99    -5.06      0.0000      0.00 LINEAR  1.8975E-03     22.42  0.0000E+00      0.00
   32.00     24.00     -4.00  -999.99    -4.00      0.0000      0.00 LINEAR  2.1453E-03     23.13  0.0000E+00      0.00
   36.00     24.00     -3.08  -999.99    -3.08      0.0000      0.00 LINEAR  2.3838E-03     22.84  0.0000E+00      0.00
   40.00     24.00     -2.29  -999.99    -2.29      0.0000      0.00 LINEAR  2.6117E-03     21.56  0.0000E+00      0.00
   44.00     24.00     -1.60  -999.99    -1.60      0.0000      0.00 LINEAR  2.8277E-03     19.30  0.0000E+00      0.00
   48.00     24.00     -1.00  -999.99    -1.00      0.0000      0.00 LINEAR  3.0308E-03     16.07  0.0000E+00      0.00
   52.00     24.00     -0.47  -999.99    -0.47      0.0000      0.00 LINEAR  3.2197E-03     11.88  0.0000E+00      0.00
   56.00     24.00     -0.01  -999.99    -0.01      0.0000      0.00 LINEAR  3.3934E-03      6.75  0.0000E+00      0.00
   60.00     24.00      0.38  -999.99     0.38      0.0000      0.00 LINEAR  3.5507E-03      0.70  0.0000E+00      0.00
   64.00     24.00      0.71  -999.99     0.71      0.0000      0.00 LINEAR  3.6908E-03     -6.22  0.0000E+00      0.00
   68.00     24.00      1.00  -999.99     1.00      0.0000      0.00 LINEAR  3.8126E-03    -14.00  0.0000E+00      0.00
   72.00     24.00      1.23  -999.99     1.23      0.0000      0.00 LINEAR  3.9154E-03    -22.58  0.0000E+00      0.00
   76.00     24.00      1.41  -999.99     1.41      0.0000      0.00 LINEAR  3.9984E-03    -31.94  0.0000E+00      0.00
   80.00     24.00      1.55  -999.99     1.55      0.0000      0.00 LINEAR  4.0611E-03    -42.01  0.0000E+00      0.00
   84.00     24.00      1.63  -999.99     1.63      0.0000      0.00 LINEAR  4.1031E-03    -52.77  0.0000E+00      0.00
   88.00     24.00      1.68  -999.99     1.68      0.0000      0.00 LINEAR  4.1240E-03    -64.14  0.0000E+00      0.00
   92.00     24.00      1.68  -999.99     1.68      0.0000      0.00 LINEAR  4.1237E-03    -76.08  0.0000E+00      0.00
   96.00     24.00      1.63  -999.99     1.63      0.0000      0.00 LINEAR  4.1022E-03    -88.53  0.0000E+00      0.00
  100.00     24.00      1.54  -999.99     1.54      0.0000     -0.00 LINEAR  4.0597E-03   -101.43  0.0000E+00      0.00
  104.00     24.00      1.41  -999.99     1.41      0.0000     -0.00 LINEAR  3.9965E-03   -114.71  0.0000E+00      0.00
  108.00     24.00      1.22  -999.99     1.22      0.0000     -0.00 LINEAR  3.9130E-03   -128.31  0.0000E+00      0.00
  112.00     24.00      0.99  -999.99     0.99      0.0000     -0.00 LINEAR  3.8098E-03   -142.17  0.0000E+00      0.00
  116.00     24.00      0.71  -999.99     0.71      0.0000     -0.00 LINEAR  3.6877E-03   -156.21  0.0000E+00      0.00
  120.00     24.00      0.37  -999.99     0.37      0.0000     -0.00 LINEAR  3.5473E-03   -170.37  0.0000E+00      0.00
  124.00     24.00     -0.02  -999.99    -0.02      0.0000     -0.00 LINEAR  3.3897E-03    175.43  0.0000E+00      0.00
  128.00     24.00     -0.48  -999.99    -0.48      0.0000     -0.00 LINEAR  3.2159E-03    161.24  0.0000E+00      0.00
  132.00     24.00     -1.01  -999.99    -1.01      0.0000     -0.00 LINEAR  3.0269E-03    147.15  0.0000E+00      0.00
  136.00     24.00     -1.61  -999.99    -1.61      0.0000     -0.00 LINEAR  2.8238E-03    133.21  0.0000E+00      0.00
  140.00     24.00     -2.30  -999.99    -2.30      0.0000     -0.00 LINEAR  2.6078E-03    119.50  0.0000E+00      0.00
  144.00     24.00     -3.10  -999.99    -3.10      0.0000     -0.00 LINEAR  2.3801E-03    106.09  0.0000E+00      0.00
  148.00     24.00     -4.01  -999.99    -4.01      0.0000     -0.00 LINEAR  2.1418E-03     93.03  0.0000E+00      0.00
  152.00     24.00     -5.08  -999.99    -5.08      0.0000      0.00 LINEAR  1.8943E-03     80.39  0.0000E+00      0.00
  156.00     24.00     -6.34  -999.99    -6.34      0.0000      0.00 LINEAR  1.6386E-03     68.24  0.0000E+00      0.00
  160.00     24.00     -7.86  -999.99    -7.86      0.0000      0.00 LINEAR  1.3760E-03     56.63  0.0000E+00      0.00
  164.00     24.00     -9.74  -999.99    -9.74      0.0000      0.00 LINEAR  1.1076E-03     45.62  0.0000E+00      0.00
  168.00     24.00    -12.20  -999.99   -12.20      0.0000      0.00 LINEAR  8.3470E-04     35.26  0.0000E+00      0.00
  172.00     24.00    -15.69  -999.99   -15.69      0.0000      0.00 LINEAR  5.5836E-04     25.60  0.0000E+00      0.00
  176.00     24.00    -21.69  -999.99   -21.69      0.0000      0.00 LINEAR  2.7975E-04     16.69  0.0000E+00      0.00
  180.00     24.00   -999.99  -999.99  -999.99      0.0000      0.00         4.0927E-14   -171.42  0.0000E+00      0.00
    0.00     28.00   -999.99  -999.99  -999.99      0.0000      0.00         0.0000E+00      0.00  0.0000E+00      0.00
    4.00     28.00    -21.68  -999.99   -21.68      0.0000      0.00 LINEAR  2.8029E-04     -2.00  0.0000E+00      0.00
    8.00     28.00    -15.67  -999.99   -15.67      0.0000      0.00 LINEAR  5.5944E-04      4.51  0.0000E+00      0.00
   12.00     28.00    -12.18  -999.99   -12.18      0.0000      0.00 LINEAR  8.3629E-04     10.13  0.0000E+00      0.00
   16.00     28.00     -9.72  -999.99    -9.72      0.0000      0.00 LINEAR  1.1097E-03     14.81  0.0000E+00      0.00
   20.00     28.00     -7.84  -999.99    -7.84      0.0000      0.00 LINEAR  1.3785E-03     18.55  0.0000E+00      0.00
   24.00     28.00     -6.32  -999.99    -6.32      0.0000      0.00 LINEAR  1.6415E-03     21.31  0.0000E+00      0.00
   28.00     28.00     -5.06  -999.99    -5.06      0.0000      0.00 LINEAR  1.8975E-03     23.10  0.0000E+00      0.00
   32.00     28.00     -4.00  -999.99    -4.00      0.0000      0.00 LINEAR  2.1453E-03     23.89  0.0000E+00      0.00
   36.00     28.00     -3.08  -999.99    -3.08      0.0000      0.00 LINEAR  2.3838E-03     23.69  0.0000E+00      0.00
   40.00     28.00     -2.29  -999.99    -2.29      0.0000      0.00 LINEAR  2.6117E-03     22.49  0.0000E+00      0.00
   44.00     28.00     -1.60  -999.99    -1.60      0.0000      0.00 LINEAR  2.8277E-03     20.30  0.0000E+00      0.00
   48.00     28.00     -1.00  -999.99    -1.00      0.0000      0.00 LINEAR  3.0308E-03     17.14  0.0000E+00      0.00
   52.00     28.00     -0.47  -999.99    -0.47      0.0000      0.00 LINEAR  3.2197E-03     13.01  0.0000E+00      0.00
   56.00     28.00     -0.01  -999.99    -0.01      0.0000      0.00 LINEAR  3.3934E-03      7.94  0.0000E+00      0.00
   60.00     28.00      0.38  -999.99     0.38      0.0000      0.00 LINEAR  3.5507E-03      1.95  0.0000E+00      0.00
   64.00     28.00      0.71  -999.99     0.71      0.0000      0.00 LINEAR  3.6908E-03     -4.93  0.0000E+00      0.00
   68.00     28.00      1.00  -999.99     1.00      0.0000      0.00 LINEAR  3.8126E-03    -12.66  0.0000E+00      0.00
   72.00     28.00      1.23  -999.99     1.23      0.0000      0.00 LINEAR  3.9154E-03    -21.21  0.0000E+00      0.00
   76.00     28.00      1.41  -999.99     1.41      0.0000      0.00 LINEAR  3.9984E-03    -30.54  0.0000E+00      0.00
   80.00     28.00      1.55  -999.99     1.55      0.0000      0.00 LINEAR  4.0611E-03    -40.60  0.0000E+00      0.00
   84.00     28.00      1.63  -999.99     1.63      0.0000      0.00 LINEAR  4.1031E-03    -51.34  0.0000E+00      0.00
   88.00     28.00      1.68  -999.99     1.68      0.0000      0.00 LINEAR  4.1240E-03    -62.71  0.0000E+00      0.00
   92.00     28.00      1.68  -999.99     1.68      0.0000      0.00 LINEAR  4.1237E-03    -74.65  0.0000E+00      0.00
   96.00     28.00      1.63  -999.99     1.63      0.0000      0.00 LINEAR  4.1022E-03    -87.10  0.0000E+00      0.00
  100.00     28.00      1.54  -999.99     1.54      0.0000     -0.00 LINEAR  4.0597E-03   -100.02  0.0000E+00      0.00
  104.00     28.00      1.41  -999.99     1.41      0.0000     -0.00 LINEAR  3.9965E-03   -113.32  0.0000E+00      0.00
  108.00     28.00      1.22  -999.99     1.22      0.0000     -0.00 LINEAR  3.9130E-03   -126.95  0.0000E+00      0.00
  112.00     28.00      0.99  -999.99     0.99      0.0000     -0.00 LINEAR  3.8098E-03   -140.84  0.0000E+00      0.00
  116.00     28.00      0.71  -999.99     0.71      0.0000     -0.00 LINEAR  3.6877E-03   -154.92  0.0000E+00      0.00
  120.00     28.00      0.37  -999.99     0.37      0.0000     -0.00 LINEAR  3.5473E-03   -169.12  0.0000E+00      0.00
  124.00     28.00     -0.02  -999.99    -0.02      0.0000     -0.00 LINEAR  3.3897E-03    176.62  0.0000E+00      0.00
  128.00     28.00     -0.48  -999.99    -0.48      0.0000     -0.00 LINEAR  3.2159E-03    162.38  0.0000E+00      0.00
  132.00     28.00     -1.01  -999.99    -1.01      0.0000     -0.00 LINEAR  3.0269E-03    148.22  0.0000E+00      0.00
  136.00     28.00     -1.61  -999.99    -1.61      0.0000     -0.00 LINEAR  2.8238E-03    134.21  0.0000E+00      0.00
  140.00     28.00     -2.30  -999.99    -2.30      0.0000     -0.00 LINEAR  2.6078E-03    120.43  0.0000E+00      0.00
  144.00     28.00     -3.10  -999.99    -3.10      0.0000     -0.00 LINEAR  2.3801E-03    106.93  0.0000E+00      0.00
  148.00     28.00     -4.01  -999.99    -4.01      0.0000     -0.00 LINEAR  2.1418E-03     93.79  0.0000E+00      0.00
  152.00     28.00     -5.08  -999.99    -5.08      0.0000      0.00 LINEAR  1.8943E-03     81.07  0.0000E+00      0.00
  156.00     28.00     -6.34  -999.99    -6.34      0.0000      0.00 LINEAR  1.6386E-03     68.82  0.0000E+00      0.00
  160.00     28.00     -7.86  -999.99    -7.86      0.0000      0.00 LINEAR  1.3760E-03     57.12  0.0000E+00      0.00
  164.00     28.00     -9.74  -999.99    -9.74      0.0000      0.00 LINEAR  1.1076E-03     46.01  0.0000E+00      0.00
  168.00     28.00    -12.20  -999.99   -12.20      0.0000      0.00 LINEAR  8.3470E-04     35.56  0.0000E+00      0.00
  172.00     28.00    -15.69  -999.99   -15.69      0.0000      0.00 LINEAR  5.5836E-04     25.80  0.0000E+00      0.00
  176.00     28.00    -21.69  -999.99   -21.69      0.0000      0.00 LINEAR  2.7975E-04     16.79  0.0000E+00      0.00
  180.00     28.00   -999.99  -999.99  -999.99      0.0000      0.00         4.0927E-14   -171.42  0.0000E+00      0.00
    0.00     32.00   -999.99  -999.99  -999.99      0.0000      0.00         0.0000E+00      0.00  0.0000E+00      0.00
    4.00     32.00    -21.68  -999.99   -21.68      0.0000      0.00 LINEAR  2.8029E-04     -1.94  0.0000E+00      0.00
    8.00     32.00    -15.67  -999.99   -15.67      0.0000      0.00 LINEAR  5.5944E-04      4.64  0.0000E+00      0.00
   12.00     32.00    -12.18  -999.99   -12.18      0.0000      0.00 LINEAR  8.3629E-04     10.31  0.0000E+00      0.00
   16.00     32.00     -9.72  -999.99    -9.72      0.0000      0.00 LINEAR  1.1097E-03     15.06  0.0000E+00      0.00
   20.00     32.00     -7.84  -999.99    -7.84      0.0000      0.00 LINEAR  1.3785E-03     18.85  0.0000E+00      0.00
   24.00     32.00     -6.32  -999.99    -6.32      0.0000      0.00 LINEAR  1.6415E-03     21.68  0.0000E+00      0.00
   28.00     32.00     -5.06  -999.99    -5.06      0.0000      0.00 LINEAR  1.8975E-03     23.52  0.0000E+00      0.00
   32.00     32.00     -4.00  -999.99    -4.00      0.0000      0.00 LINEAR  2.1453E-03     24.36  0.0000E+00      0.00
   36.00     32.00     -3.08  -999.99    -3.08      0.0000      0.00 LINEAR  2.3838E-03     24.21  0.0000E+00      0.00
   40.00     32.00     -2.29  -999.99    -2.29      0.0000      0.00 LINEAR  2.6117E-03     23.06  0.0000E+00      0.00
   44.00     32.00     -1.60  -999.99    -1.60      0.0000      0.00 LINEAR  2.8277E-03     20.92  0.0000E+00      0.00
   48.00     32.00     -1.00  -999.99    -1.00      0.0000      0.00 LINEAR  3.0308E-03     17.80  0.0000E+00      0.00
   52.00     32.00     -0.47  -999.99    -0.47      0.0000      0.00 LINEAR  3.2197E-03     13.71  0.0000E+00      0.00
   56.00     32.00     -0.01  -999.99    -0.01      0.0000      0.00 LINEAR  3.3934E-03      8.68  0.0000E+00      0.00
   60.00     32.00      0.38  -999.99     0.38      0.0000      0.00 LINEAR  3.5507E-03      2.72  0.0000E+00      0.00
   64.00     32.00      0.71  -999.99     0.71      0.0000      0.00 LINEAR  3.6908E-03     -4.12  0.0000E+00      0.00
   68.00     32.00      1.00  -999.99     1.00      0.0000      0.00 LINEAR  3.8126E-03    -11.83  0.0000E+00      0.00
   72.00     32.00      1.23  -999.99     1.23      0.0000      0.00 LINEAR  3.9154E-03    -20.36  0.0000E+00      0.00
   76.00     32.00      1.41  -999.99     1.41      0.0000      0.00 LINEAR  3.9984E-03    -29.67  0.0000E+00      0.00
   80.00     32.00      1.55  -999.99     1.55      0.0000      0.00 LINEAR  4.0611E-03    -39.72  0.0000E+00      0.00
   84.00     32.00      1.63  -999.99     1.63      0.0000      0.00 LINEAR  4.1031E-03    -50.45  0.0000E+00      0.00
   88.00     32.00      1.68  -999.99     1.68      0.0000      0.00 LINEAR  4.1240E-03    -61.81  0.0000E+00      0.00
   92.00     32.00      1.68  -999.99     1.68      0.0000      0.00 LINEAR  4.1237E-03    -73.75  0.0000E+00      0.00
   96.00     32.00      1.63  -999.99     1.63      0.0000      0.00 LINEAR  4.1022E-03    -86.22  0.0000E+00      0.00
  100.00     32.00      1.54  -999.99     1.54      0.0000     -0.00 LINEAR  4.0597E-03    -99.14  0.0000E+00      0.00
  104.00     32.00      1.41  -999.99     1.41      0.0000     -0.00 LINEAR  3.9965E-03   -112.45  0.0000E+00      0.00
  108.00     32.00      1.22  -999.99     1.22      0.0000     -0.00 LINEAR  3.9130E-03   -126.10  0.0000E+00      0.00
  112.00     32.00      0.99  -999.99     0.99      0.0000     -0.00 LINEAR  3.8098E-03   -140.01  0.0000E+00      0.00
  116.00     32.00      0.71  -999.99     0.71      0.0000     -0.00 LINEAR  3.6877E-03   -154.11  0.0000E+00      0.00
  120.00     32.00      0.37  -999.99     0.37      0.0000     -0.00 LINEAR  3.5473E-03   -168.35  0.0000E+00      0.00
  124.00     32.00     -0.02  -999.99    -0.02      0.0000     -0.00 LINEAR  3.3897E-03    177.36  0.0000E+00      0.00
  128.00     32.00     -0.48  -999.99    -0.48      0.0000     -0.00 LINEAR  3.2159E-03    163.08  0.0000E+00      0.00
  132.00     32.00     -1.01  -999.99    -1.01      0.0000     -0.00 LINEAR  3.0269E-03    148.88  0.0000E+00      0.00
  136.00     32.00     -1.61  -999.99    -1.61      0.0000     -0.00 LINEAR  2.8238E-03    134.83  0.0000E+00      0.00
  140.00     32.00     -2.30  -999.99    -2.30      0.0000     -0.00 LINEAR  2.6078E-03    121.00  0.0000E+00      0.00
  144.00     32.00     -3.10  -999.99    -3.10      0.0000     -0.00 LINEAR  2.3801E-03    107.46  0.0000E+00      0.00
  148.00     32.00     -4.01  -999.99    -4.01      0.0000     -0.00 LINEAR  2.1418E-03     94.27  0.0000E+00      0.00
  152.00     32.00     -5.08  -999.99    -5.08      0.0000      0.00 LINEAR  1.8943E-03     81.49  0.0000E+00      0.00
  156.00     32.00     -6.34  -999.99    -6.34      0.0000      0.00 LINEAR  1.6386E-03     69.19  0.0000E+00      0.00
  160.00     32.00     -7.86  -999.99    -7.86      0.0000      0.00 LINEAR  1.3760E-03     57.43  0.0000E+00      0.00
  164.00     32.00     -9.74  -999.99    -9.74      0.0000      0.00 LINEAR  1.1076E-03     46.26  0.0000E+00      0.00
  168.00     32.00    -12.20  -999.99   -12.20      0.0000      0.00 LINEAR  8.3470E-04     35.74  0.0000E+00      0.00
  172.00     32.00    -15.69  -999.99   -15.69      0.0000      0.00 LINEAR  5.5836E-04     25.92  0.0000E+00      0.00
  176.00     32.00    -21.69  -999.99   -21.69      0.0000      0.00 LINEAR  2.7975E-04     16.86  0.0000E+00      0.00
  180.00     32.00   -999.99  -999.99  -999.99      0.0000      0.00         4.0927E-14   -171.42  0.0000E+00      0.00
    0.00     36.00   -999.99  -999.99  -999.99      0.0000      0.00         0.0000E+00      0.00  0.0000E+00      0.00
    4.00     36.00    -21.68  -999.99   -21.68      0.0000      0.00 LINEAR  2.8029E-04     -1.91  0.0000E+00      0.00
    8.00     36.00    -15.67  -999.99   -15.67      0.0000      0.00 LINEAR  5.5944E-04      4.69  0.0000E+00      0.00
   12.00     36.00    -12.18  -999.99   -12.18      0.0000      0.00 LINEAR  8.3629E-04     10.38  0.0000E+00      0.00
   16.00     36.00     -9.72  -999.99    -9.72      0.0000      0.00 LINEAR  1.1097E-03     15.15  0.0000E+00      0.00
   20.00     36.00     -7.84  -999.99    -7.84      0.0000      0.00 LINEAR  1.3785E-03     18.97  0.0000E+00      0.00
   24.00     36.00     -6.32  -999.99    -6.32      0.0000      0.00 LINEAR  1.6415E-03     21.82  0.0000E+00      0.00
   28.00     36.00     -5.06  -999.99    -5.06      0.0000      0.00 LINEAR  1.8975E-03     23.68  0.0000E+00      0.00
   32.00     36.00     -4.00  -999.99    -4.00      0.0000      0.00 LINEAR  2.1453E-03     24.55  0.0000E+00      0.00
   36.00     36.00     -3.08  -999.99    -3.08      0.0000      0.00 LINEAR  2.3838E-03     24.41  0.0000E+00      0.00
   40.00     36.00     -2.29  -999.99    -2.29      0.0000      0.00 LINEAR  2.6117E-03     23.28  0.0000E+00      0.00
   44.00     36.00     -1.60  -999.99    -1.60      0.0000      0.00 LINEAR  2.8277E-03     21.16  0.0000E+00      0.00
   48.00     36.00     -1.00  -999.99    -1.00      0.0000      0.00 LINEAR  3.0308E-03     18.06  0.0000E+00      0.00
   52.00     36.00     -0.47  -999.99    -0.47      0.0000      0.00 LINEAR  3.2197E-03     13.99  0.0000E+00      0.00
   56.00     36.00     -0.01  -999.99    -0.01      0.0000      0.00 LINEAR  3.3934E-03      8.97  0.0000E+00      0.00
   60.00     36.00      0.38  -999.99     0.38      0.0000      0.00 LINEAR  3.5507E-03      3.02  0.0000E+00      0.00
   64.00     36.00      0.71  -999.99     0.71      0.0000      0.00 LINEAR  3.6908E-03     -3.82  0.0000E+00      0.00
   68.00     36.00      1.00  -999.99     1.00      0.0000      0.00 LINEAR  3.8126E-03    -11.51  0.0000E+00      0.00
   72.00     36.00      1.23  -999.99     1.23      0.0000      0.00 LINEAR  3.9154E-03    -20.04  0.0000E+00      0.00
   76.00     36.00      1.41  -999.99     1.41      0.0000      0.00 LINEAR  3.9984E-03    -29.34  0.0000E+00      0.00
   80.00     36.00      1.55  -999.99     1.55      0.0000      0.00 LINEAR  4.0611E-03    -39.38  0.0000E+00      0.00
   84.00     36.00      1.63  -999.99     1.63      0.0000      0.00 LINEAR  4.1031E-03    -50.11  0.0000E+00      0.00
   88.00     36.00      1.68  -999.99     1.68      0.0000      0.00 LINEAR  4.1240E-03    -61.47  0.0000E+00      0.00
   92.00     36.00      1.68  -999.99     1.68      0.0000      0.00 LINEAR  4.1237E-03    -73.41  0.0000E+00      0.00
   96.00     36.00      1.63  -999.99     1.63      0.0000      0.00 LINEAR  4.1022E-03    -85.87  0.0000E+00      0.00
  100.00     36.00      1.54  -999.99     1.54      0.0000     -0.00 LINEAR  4.0597E-03    -98.80  0.0000E+00      0.00
  104.00     36.00      1.41  -999.99     1.41      0.0000     -0.00 LINEAR  3.9965E-03   -112.12  0.0000E+00      0.00
  108.00     36.00      1.22  -999.99     1.22      0.0000     -0.00 LINEAR  3.9130E-03   -125.77  0.0000E+00      0.00
  112.00     36.00      0.99  -999.99     0.99      0.0000     -0.00 LINEAR  3.8098E-03   -139.69  0.0000E+00      0.00
  116.00     36.00      0.71  -999.99     0.71      0.0000     -0.00 LINEAR  3.6877E-03   -153.80  0.0000E+00      0.00
  120.00     36.00      0.37  -999.99     0.37      0.0000     -0.00 LINEAR  3.5473E-03   -168.05  0.0000E+00      0.00
  124.00     36.00     -0.02  -999.99    -0.02      0.0000     -0.00 LINEAR  3.3897E-03    177.65  0.0000E+00      0.00
  128.00     36.00     -0.48  -999.99    -0.48      0.0000     -0.00 LINEAR  3.2159E-03    163.35  0.0000E+00      0.00
  132.00     36.00     -1.01  -999.99    -1.01      0.0000     -0.00 LINEAR  3.0269E-03    149.14  0.0000E+00      0.00
  136.00     36.00     -1.61  -999.99    -1.61      0.0000     -0.00 LINEAR  2.8238E-03    135.07  0.0000E+00      0.00
  140.00     36.00     -2.30  -999.99    -2.30      0.0000     -0.00 LINEAR  2.6078E-03    121.22  0.0000E+00      0.00
  144.00     36.00     -3.10  -999.99    -3.10      0.0000     -0.00 LINEAR  2.3801E-03    107.66  0.0000E+00      0.00
  148.00     36.00     -4.01  -999.99    -4.01      0.0000     -0.00 LINEAR  2.1418E-03     94.45  0.0000E+00      0.00
  152.00     36.00     -5.08  -999.99    -5.08      0.0000      0.00 LINEAR  1.8943E-03     81.65  0.0000E+00      0.00
  156.00     36.00     -6.34  -999.99    -6.34      0.0000      0.00 LINEAR  1.6386E-03     69.33  0.0000E+00      0.00
  160.00     36.00     -7.86  -999.99    -7.86      0.0000      0.00 LINEAR  1.3760E-03     57.54  0.0000E+00      0.00
  164.00     36.00     -9.74  -999.99    -9.74      0.0000      0.00 LINEAR  1.1076E-03     46.36  0.0000E+00      0.00
  168.00     36.00    -12.20  -999.99   -12.20      0.0000      0.00 LINEAR  8.3470E-04     35.81  0.0000E+00      0.00
  172.00     36.00    -15.69  -999.99   -15.69      0.0000      0.00 LINEAR  5.5836E-04     25.97  0.0000E+00      0.00
  176.00     36.00    -21.69  -999.99   -21.69      0.0000      0.00 LINEAR  2.7975E-04     16.88  0.0000E+00      0.00
  180.00     36.00   -999.99  -999.99  -999.99      0.0000      0.00         4.0927E-14   -171.42  0.0000E+00      0.00
    0.00     40.00   -999.99  -999.99  -999.99      0.0000      0.00         0.0000E+00      0.00  0.0000E+00      0.00
    4.00     40.00    -21.68  -999.99   -21.68      0.0000      0.00 LINEAR  2.8029E-04     -1.93  0.0000E+00      0.00
    8.00     40.00    -15.67  -999.99   -15.67      0.0000      0.00 LINEAR  5.5944E-04      4.66  0.0000E+00      0.00
   12.00     40.00    -12.18  -999.99   -12.18      0.0000      0.00 LINEAR  8.3629E-04     10.34  0.0000E+00      0.00
   16.00     40.00     -9.72  -999.99    -9.72      0.0000      0.00 LINEAR  1.1097E-03     15.10  0.0000E+00      0.00
   20.00     40.00     -7.84  -999.99    -7.84      0.0000      0.00 LINEAR  1.3785E-03     18.90  0.0000E+00      0.00
   24.00     40.00     -6.32  -999.99    -6.32      0.0000      0.00 LINEAR  1.6415E-03     21.73  0.0000E+00      0.00
   28.00     40.00     -5.06  -999.99    -5.06      0.0000      0.00 LINEAR  1.8975E-03     23.58  0.0000E+00      0.00
   32.00     40.00     -4.00  -999.99    -4.00      0.0000      0.00 LINEAR  2.1453E-03     24.44  0.0000E+00      0.00
   36.00     40.00     -3.08  -999.99    -3.08      0.0000      0.00 LINEAR  2.3838E-03     24.29  0.0000E+00      0.00
   40.00     40.00     -2.29  -999.99    -2.29      0.0000      0.00 LINEAR  2.6117E-03     23.15  0.0000E+00      0.00
   44.00     40.00     -1.60  -999.99    -1.60      0.0000      0.00 LINEAR  2.8277E-03     21.02  0.0000E+00      0.00
   48.00     40.00     -1.00  -999.99    -1.00      0.0000      0.00 LINEAR  3.0308E-03     17.90  0.0000E+00      0.00
   52.00     40.00     -0.47  -999.99    -0.47      0.0000      0.00 LINEAR  3.2197E-03     13.82  0.0000E+00      0.00
   56.00     40.00     -0.01  -999.99    -0.01      0.0000      0.00 LINEAR  3.3934E-03      8.79  0.0000E+00      0.00
   60.00     40.00      0.38  -999.99     0.38      0.0000      0.00 LINEAR  3.5507E-03      2.84  0.0000E+00      0.00
   64.00     40.00      0.71  -999.99     0.71      0.0000      0.00 LINEAR  3.6908E-03     -4.00  0.0000E+00      0.00
   68.00     40.00      1.00  -999.99     1.00      0.0000      0.00 LINEAR  3.8126E-03    -11.70  0.0000E+00      0.00
   72.00     40.00      1.23  -999.99     1.23      0.0000      0.00 LINEAR  3.9154E-03    -20.23  0.0000E+00      0.00
   76.00     40.00      1.41  -999.99     1.41      0.0000      0.00 LINEAR  3.9984E-03    -29.54  0.0000E+00      0.00
   80.00     40.00      1.55  -999.99     1.55      0.0000      0.00 LINEAR  4.0611E-03    -39.58  0.0000E+00      0.00
   84.00     40.00      1.63  -999.99     1.63      0.0000      0.00 LINEAR  4.1031E-03    -50.31  0.0000E+00      0.00
   88.00     40.00      1.68  -999.99     1.68      0.0000      0.00 LINEAR  4.1240E-03    -61.67  0.0000E+00      0.00
   92.00     40.00      1.68  -999.99     1.68      0.0000      0.00 LINEAR  4.1237E-03    -73.62  0.0000E+00      0.00
   96.00     40.00      1.63  -999.99     1.63      0.0000      0.00 LINEAR  4.1022E-03    -86.08  0.0000E+00      0.00
  100.00     40.00      1.54  -999.99     1.54      0.0000     -0.00 LINEAR  4.0597E-03    -99.00  0.0000E+00      0.00
  104.00     40.00      1.41  -999.99     1.41      0.0000     -0.00 LINEAR  3.9965E-03   -112.32  0.0000E+00      0.00
  108.00     40.00      1.22  -999.99     1.22      0.0000     -0.00 LINEAR  3.9130E-03   -125.96  0.0000E+00      0.00
  112.00     40.00      0.99  -999.99     0.99      0.0000     -0.00 LINEAR  3.8098E-03   -139.88  0.0000E+00      0.00
  116.00     40.00      0.71  -999.99     0.71      0.0000     -0.00 LINEAR  3.6877E-03   -153.99  0.0000E+00      0.00
  120.00     40.00      0.37  -999.99     0.37      0.0000     -0.00 LINEAR  3.5473E-03   -168.23  0.0000E+00      0.00
  124.00     40.00     -0.02  -999.99    -0.02      0.0000     -0.00 LINEAR  3.3897E-03    177.48  0.0000E+00      0.00
  128.00     40.00     -0.48  -999.99    -0.48      0.0000     -0.00 LINEAR  3.2159E-03    163.19  0.0000E+00      0.00
  132.00     40.00     -1.01  -999.99    -1.01      0.0000     -0.00 LINEAR  3.0269E-03    148.99  0.0000E+00      0.00
  136.00     40.00     -1.61  -999.99    -1.61      0.0000     -0.00 LINEAR  2.8238E-03    134.93  0.0000E+00      0.00
  140.00     40.00     -2.30  -999.99    -2.30      0.0000     -0.00 LINEAR  2.6078E-03    121.09  0.0000E+00      0.00
  144.00     40.00     -3.10  -999.99    -3.10      0.0000     -0.00 LINEAR  2.3801E-03    107.54  0.0000E+00      0.00
  148.00     40.00     -4.01  -999.99    -4.01      0.0000     -0.00 LINEAR  2.1418E-03     94.34  0.0000E+00      0.00
  152.00     40.00     -5.08  -999.99    -5.08      0.0000      0.00 LINEAR  1.8943E-03     81.55  0.0000E+00      0.00
  156.00     40.00     -6.34  -999.99    -6.34      0.0000      0.00 LINEAR  1.6386E-03     69.24  0.0000E+00      0.00
  160.00     40.00     -7.86  -999.99    -7.86      0.0000      0.00 LINEAR  1.3760E-03     57.47  0.0000E+00      0.00
  164.00     40.00     -9.74  -999.99    -9.74      0.0000      0.00 LINEAR  1.1076E-03     46.30  0.0000E+00      0.00
  168.00     40.00    -12.20  -999.99   -12.20      0.0000      0.00 LINEAR  8.3470E-04     35.77  0.0000E+00      0.00
  172.00     40.00    -15.69  -999.99   -15.69      0.0000      0.00 LINEAR  5.5836E-04     25.94  0.0000E+00      0.00
  176.00     40.00    -21.69  -999.99   -21.69      0.0000      0.00 LINEAR  2.7975E-04     16.87  0.0000E+00      0.00
  180.00     40.00   -999.99  -999.99  -999.99      0.0000      0.00         4.0927E-14   -171.42  0.0000E+00      0.00
    0.00     44.00   -999.99  -999.99  -999.99      0.0000      0.00         0.0000E+00      0.00  0.0000E+00      0.00
    4.00     44.00    -21.68  -999.99   -21.68      0.0000      0.00 LINEAR  2.8029E-04     -1.98  0.0000E+00      0.00
    8.00     44.00    -15.67  -999.99   -15.67      0.0000      0.00 LINEAR  5.5944E-04      4.55  0.0000E+00      0.00
   12.00     44.00    -12.18  -999.99   -12.18      0.0000      0.00 LINEAR  8.3629E-04     10.19  0.0000E+00      0.00
   16.00     44.00     -9.72  -999.99    -9.72      0.0000      0.00 LINEAR  1.1097E-03     14.89  0.0000E+00      0.00
   20.00     44.00     -7.84  -999.99    -7.84      0.0000      0.00 LINEAR  1.3785E-03     18.64  0.0000E+00      0.00
   24.00     44.00     -6.32  -999.99    -6.32      0.0000      0.00 LINEAR  1.6415E-03     21.43  0.0000E+00      0.00
   28.00     44.00     -5.06  -999.99    -5.06      0.0000      0.00 LINEAR  1.8975E-03     23.23  0.0000E+00      0.00
   32.00     44.00     -4.00  -999.99    -4.00      0.0000      0.00 LINEAR  2.1453E-03     24.04  0.0000E+00      0.00
   36.00     44.00     -3.08  -999.99    -3.08      0.0000      0.00 LINEAR  2.3838E-03     23.85  0.0000E+00      0.00
   40.00     44.00     -2.29  -999.99    -2.29      0.0000      0.00 LINEAR  2.6117E-03     22.67  0.0000E+00      0.00
   44.00     44.00     -1.60  -999.99    -1.60      0.0000      0.00 LINEAR  2.8277E-03     20.49  0.0000E+00      0.00
   48.00     44.00     -1.00  -999.99    -1.00      0.0000      0.00 LINEAR  3.0308E-03     17.34  0.0000E+00      0.00
   52.00     44.00     -0.47  -999.99    -0.47      0.0000      0.00 LINEAR  3.2197E-03     13.23  0.0000E+00      0.00
   56.00     44.00     -0.01  -999.99    -0.01      0.0000      0.00 LINEAR  3.3934E-03      8.17  0.0000E+00      0.00
   60.00     44.00      0.38  -999.99     0.38      0.0000      0.00 LINEAR  3.5507E-03      2.19  0.0000E+00      0.00
   64.00     44.00      0.71  -999.99     0.71      0.0000      0.00 LINEAR  3.6908E-03     -4.68  0.0000E+00      0.00
   68.00     44.00      1.00  -999.99     1.00      0.0000      0.00 LINEAR  3.8126E-03    -12.40  0.0000E+00      0.00
   72.00     44.00      1.23  -999.99     1.23      0.0000      0.00 LINEAR  3.9154E-03    -20.95  0.0000E+00      0.00
   76.00     44.00      1.41  -999.99     1.41      0.0000      0.00 LINEAR  3.9984E-03    -30.27  0.0000E+00      0.00
   80.00     44.00      1.55  -999.99     1.55      0.0000      0.00 LINEAR  4.0611E-03    -40.33  0.0000E+00      0.00
   84.00     44.00      1.63  -999.99     1.63      0.0000      0.00 LINEAR  4.1031E-03    -51.06  0.0000E+00      0.00
   88.00     44.00      1.68  -999.99     1.68      0.0000      0.00 LINEAR  4.1240E-03    -62.43  0.0000E+00      0.00
   92.00     44.00      1.68  -999.99     1.68      0.0000      0.00 LINEAR  4.1237E-03    -74.37  0.0000E+00      0.00
   96.00     44.00      1.63  -999.99     1.63      0.0000      0.00 LINEAR  4.1022E-03    -86.83  0.0000E+00      0.00
  100.00     44.00      1.54  -999.99     1.54      0.0000     -0.00 LINEAR  4.0597E-03    -99.74  0.0000E+00      0.00
  104.00     44.00      1.41  -999.99     1.41      0.0000     -0.00 LINEAR  3.9965E-03   -113.05  0.0000E+00      0.00
  108.00     44.00      1.22  -999.99     1.22      0.0000     -0.00 LINEAR  3.9130E-03   -126.68  0.0000E+00      0.00
  112.00     44.00      0.99  -999.99     0.99      0.0000     -0.00 LINEAR  3.8098E-03   -140.58  0.0000E+00      0.00
  116.00     44.00      0.71  -999.99     0.71      0.0000     -0.00 LINEAR  3.6877E-03   -154.67  0.0000E+00      0.00
  120.00     44.00      0.37  -999.99     0.37      0.0000     -0.00 LINEAR  3.5473E-03   -168.88  0.0000E+00      0.00
  124.00     44.00     -0.02  -999.99    -0.02      0.0000     -0.00 LINEAR  3.3897E-03    176.85  0.0000E+00      0.00
  128.00     44.00     -0.48  -999.99    -0.48      0.0000     -0.00 LINEAR  3.2159E-03    162.60  0.0000E+00      0.00
  132.00     44.00     -1.01  -999.99    -1.01      0.0000     -0.00 LINEAR  3.0269E-03    148.42  0.0000E+00      0.00
  136.00     44.00     -1.61  -999.99    -1.61      0.0000     -0.00 LINEAR  2.8238E-03    134.40  0.0000E+00      0.00
  140.00     44.00     -2.30  -999.99    -2.30      0.0000     -0.00 LINEAR  2.6078E-03    120.61  0.0000E+00      0.00
  144.00     44.00     -3.10  -999.99    -3.10      0.0000     -0.00 LINEAR  2.3801E-03    107.10  0.0000E+00      0.00
  148.00     44.00     -4.01  -999.99    -4.01      0.0000     -0.00 LINEAR  2.1418E-03     93.94  0.0000E+00      0.00
  152.00     44.00     -5.08  -999.99    -5.08      0.0000      0.00 LINEAR  1.8943E-03     81.20  0.0000E+00      0.00
  156.00     44.00     -6.34  -999.99    -6.34      0.0000      0.00 LINEAR  1.6386E-03     68.94  0.0000E+00      0.00
  160.00     44.00     -7.86  -999.99    -7.86      0.0000      0.00 LINEAR  1.3760E-03     57.22  0.0000E+00      0.00
  164.00     44.00     -9.74  -999.99    -9.74      0.0000      0.00 LINEAR  1.1076E-03     46.09  0.0000E+00      0.00
  168.00     44.00    -12.20  -999.99   -12.20      0.0000      0.00 LINEAR  8.3470E-04     35.61  0.0000E+00      0.00
  172.00     44.00    -15.69  -999.99   -15.69      0.0000      0.00 LINEAR  5.5836E-04     25.84  0.0000E+00      0.00
  176.00     44.00    -21.69  -999.99   -21.69      0.0000      0.00 LINEAR  2.7975E-04     16.81  0.0000E+00      0.00
  180.00     44.00   -999.99  -999.99  -999.99      0.0000      0.00         4.0927E-14   -171.42  0.0000E+00      0.00
    0.00     48.00   -999.99  -999.99  -999.99      0.0000      0.00         0.0000E+00      0.00  0.0000E+00      0.00
    4.00     48.00    -21.68  -999.99   -21.68      0.0000      0.00 LINEAR  2.8029E-04     -2.07  0.0000E+00      0.00
    8.00     48.00    -15.67  -999.99   -15.67      0.0000      0.00 LINEAR  5.5944E-04      4.37  0.0000E+00      0.00
   12.00     48.00    -12.18  -999.99   -12.18      0.0000      0.00 LINEAR  8.3629E-04      9.91  0.0000E+00      0.00
   16.00     48.00     -9.72  -999.99    -9.72      0.0000      0.00 LINEAR  1.1097E-03     14.53  0.0000E+00      0.00
   20.00     48.00     -7.84  -999.99    -7.84      0.0000      0.00 LINEAR  1.3785E-03     18.20  0.0000E+00      0.00
   24.00     48.00     -6.32  -999.99    -6.32      0.0000      0.00 LINEAR  1.6415E-03     20.90  0.0000E+00      0.00
   28.00     48.00     -5.06  -999.99    -5.06      0.0000      0.00 LINEAR  1.8975E-03     22.62  0.0000E+00      0.00
   32.00     48.00     -4.00  -999.99    -4.00      0.0000      0.00 LINEAR  2.1453E-03     23.35  0.0000E+00      0.00
   36.00     48.00     -3.08  -999.99    -3.08      0.0000      0.00 LINEAR  2.3838E-03     23.08  0.0000E+00      0.00
   40.00     48.00     -2.29  -999.99    -2.29      0.0000      0.00 LINEAR  2.6117E-03     21.83  0.0000E+00      0.00
   44.00     48.00     -1.60  -999.99    -1.60      0.0000      0.00 LINEAR  2.8277E-03     19.59  0.0000E+00      0.00
   48.00     48.00     -1.00  -999.99    -1.00      0.0000      0.00 LINEAR  3.0308E-03     16.38  0.0000E+00      0.00
   52.00     48.00     -0.47  -999.99    -0.47      0.0000      0.00 LINEAR  3.2197E-03     12.20  0.0000E+00      0.00
   56.00     48.00     -0.01  -999.99    -0.01      0.0000      0.00 LINEAR  3.3934E-03      7.09  0.0000E+00      0.00
   60.00     48.00      0.38  -999.99     0.38      0.0000      0.00 LINEAR  3.5507E-03      1.06  0.0000E+00      0.00
   64.00     48.00      0.71  -999.99     0.71      0.0000      0.00 LINEAR  3.6908E-03     -5.85  0.0000E+00      0.00
   68.00     48.00      1.00  -999.99     1.00      0.0000      0.00 LINEAR  3.8126E-03    -13.61  0.0000E+00      0.00
   72.00     48.00      1.23  -999.99     1.23      0.0000      0.00 LINEAR  3.9154E-03    -22.19  0.0000E+00      0.00
   76.00     48.00      1.41  -999.99     1.41      0.0000      0.00 LINEAR  3.9984E-03    -31.53  0.0000E+00      0.00
   80.00     48.00      1.55  -999.99     1.55      0.0000      0.00 LINEAR  4.0611E-03    -41.61  0.0000E+00      0.00
   84.00     48.00      1.63  -999.99     1.63      0.0000      0.00 LINEAR  4.1031E-03    -52.36  0.0000E+00      0.00
   88.00     48.00      1.68  -999.99     1.68      0.0000      0.00 LINEAR  4.1240E-03    -63.73  0.0000E+00      0.00
   92.00     48.00      1.68  -999.99     1.68      0.0000      0.00 LINEAR  4.1237E-03    -75.67  0.0000E+00      0.00
   96.00     48.00      1.63  -999.99     1.63      0.0000      0.00 LINEAR  4.1022E-03    -88.12  0.0000E+00      0.00
  100.00     48.00      1.54  -999.99     1.54      0.0000     -0.00 LINEAR  4.0597E-03   -101.02  0.0000E+00      0.00
  104.00     48.00      1.41  -999.99     1.41      0.0000     -0.00 LINEAR  3.9965E-03   -114.31  0.0000E+00      0.00
  108.00     48.00      1.22  -999.99     1.22      0.0000     -0.00 LINEAR  3.9130E-03   -127.92  0.0000E+00      0.00
  112.00     48.00      0.99  -999.99     0.99      0.0000     -0.00 LINEAR  3.8098E-03   -141.79  0.0000E+00      0.00
  116.00     48.00      0.71  -999.99     0.71      0.0000     -0.00 LINEAR  3.6877E-03   -155.84  0.0000E+00      0.00
  120.00     48.00      0.37  -999.99     0.37      0.0000     -0.00 LINEAR  3.5473E-03   -170.01  0.0000E+00      0.00
  124.00     48.00     -0.02  -999.99    -0.02      0.0000     -0.00 LINEAR  3.3897E-03    175.77  0.0000E+00      0.00
  128.00     48.00     -0.48  -999.99    -0.48      0.0000     -0.00 LINEAR  3.2159E-03    161.57  0.0000E+00      0.00
  132.00     48.00     -1.01  -999.99    -1.01      0.0000     -0.00 LINEAR  3.0269E-03    147.46  0.0000E+00      0.00
  136.00     48.00     -1.61  -999.99    -1.61      0.0000     -0.00 LINEAR  2.8238E-03    133.50  0.0000E+00      0.00
  140.00     48.00     -2.30  -999.99    -2.30      0.0000     -0.00 LINEAR  2.6078E-03    119.77  0.0000E+00      0.00
  144.00     48.00     -3.10  -999.99    -3.10      0.0000     -0.00 LINEAR  2.3801E-03    106.33  0.0000E+00      0.00
  148.00     48.00     -4.01  -999.99    -4.01      0.0000     -0.00 LINEAR  2.1418E-03     93.25  0.0000E+00      0.00
  152.00     48.00     -5.08  -999.99    -5.08      0.0000      0.00 LINEAR  1.8943E-03     80.59  0.0000E+00      0.00
  156.00     48.00     -6.34  -999.99    -6.34      0.0000      0.00 LINEAR  1.6386E-03     68.41  0.0000E+00      0.00
  160.00     48.00     -7.86  -999.99    -7.86      0.0000      0.00 LINEAR  1.3760E-03     56.77  0.0000E+00      0.00
  164.00     48.00     -9.74  -999.99    -9.74      0.0000      0.00 LINEAR  1.1076E-03     45.73  0.0000E+00      0.00
  168.00     48.00    -12.20  -999.99   -12.20      0.0000      0.00 LINEAR  8.3470E-04     35.34  0.0000E+00      0.00
  172.00     48.00    -15.69  -999.99   -15.69      0.0000      0.00 LINEAR  5.5836E-04     25.66  0.0000E+00      0.00
  176.00     48.00    -21.69  -999.99   -21.69      0.0000      0.00 LINEAR  2.7975E-04     16.72  0.0000E+00      0.00
  180.00     48.00   -999.99  -999.99  -999.99      0.0000      0.00         4.0927E-14   -171.42  0.0000E+00      0.00
    0.00     52.00   -999.99  -999.99  -999.99      0.0000      0.00         0.0000E+00      0.00  0.0000E+00      0.00
    4.00     52.00    -21.68  -999.99   -21.68      0.0000      0.00 LINEAR  2.8029E-04     -2.20  0.0000E+00      0.00
    8.00     52.00    -15.67  -999.99   -15.67      0.0000      0.00 LINEAR  5.5944E-04      4.12  0.0000E+00      0.00
   12.00     52.00    -12.18  -999.99   -12.18      0.0000      0.00 LINEAR  8.3629E-04      9.53  0.0000E+00      0.00
   16.00     52.00     -9.72  -999.99    -9.72      0.0000      0.00 LINEAR  1.1097E-03     14.02  0.0000E+00      0.00
   20.00     52.00     -7.84  -999.99    -7.84      0.0000      0.00 LINEAR  1.3785E-03     17.57  0.0000E+00      0.00
   24.00     52.00     -6.32  -999.99    -6.32      0.0000      0.00 LINEAR  1.6415E-03     20.15  0.0000E+00      0.00
   28.00     52.00     -5.06  -999.99    -5.06      0.0000      0.00 LINEAR  1.8975E-03     21.75  0.0000E+00      0.00
   32.00     52.00     -4.00  -999.99    -4.00      0.0000      0.00 LINEAR  2.1453E-03     22.37  0.0000E+00      0.00
   36.00     52.00     -3.08  -999.99    -3.08      0.0000      0.00 LINEAR  2.3838E-03     22.00  0.0000E+00      0.00
   40.00     52.00     -2.29  -999.99    -2.29      0.0000      0.00 LINEAR  2.6117E-03     20.65  0.0000E+00      0.00
   44.00     52.00     -1.60  -999.99    -1.60      0.0000      0.00 LINEAR  2.8277E-03     18.31  0.0000E+00      0.00
   48.00     52.00     -1.00  -999.99    -1.00      0.0000      0.00 LINEAR  3.0308E-03     15.01  0.0000E+00      0.00
   52.00     52.00     -0.47  -999.99    -0.47      0.0000      0.00 LINEAR  3.2197E-03     10.75  0.0000E+00      0.00
   56.00     52.00     -0.01  -999.99    -0.01      0.0000      0.00 LINEAR  3.3934E-03      5.56  0.0000E+00      0.00
   60.00     52.00      0.38  -999.99     0.38      0.0000      0.00 LINEAR  3.5507E-03     -0.53  0.0000E+00      0.00
   64.00     52.00      0.71  -999.99     0.71      0.0000      0.00 LINEAR  3.6908E-03     -7.50  0.0000E+00      0.00
   68.00     52.00      1.00  -999.99     1.00      0.0000      0.00 LINEAR  3.8126E-03    -15.32  0.0000E+00      0.00
   72.00     52.00      1.23  -999.99     1.23      0.0000      0.00 LINEAR  3.9154E-03    -23.94  0.0000E+00      0.00
[...]
   76.00    344.00      1.41  -999.99     1.41      0.0000      0.00 LINEAR  3.9984E-03    -72.25  0.0000E+00      0.00
   80.00    344.00      1.55  -999.99     1.55      0.0000      0.00 LINEAR  4.0611E-03    -82.93  0.0000E+00      0.00
   84.00    344.00      1.63  -999.99     1.63      0.0000     -0.00 LINEAR  4.1031E-03    -94.09  0.0000E+00      0.00
   88.00    344.00      1.68  -999.99     1.68      0.0000     -0.00 LINEAR  4.1240E-03   -105.67  0.0000E+00      0.00
   92.00    344.00      1.68  -999.99     1.68      0.0000     -0.00 LINEAR  4.1237E-03   -117.61  0.0000E+00      0.00
   96.00    344.00      1.63  -999.99     1.63      0.0000     -0.00 LINEAR  4.1022E-03   -129.86  0.0000E+00      0.00
  100.00    344.00      1.54  -999.99     1.54      0.0000     -0.00 LINEAR  4.0597E-03   -142.35  0.0000E+00      0.00
  104.00    344.00      1.41  -999.99     1.41      0.0000     -0.00 LINEAR  3.9965E-03   -155.03  0.0000E+00      0.00
  108.00    344.00      1.22  -999.99     1.22      0.0000     -0.00 LINEAR  3.9130E-03   -167.83  0.0000E+00      0.00
  112.00    344.00      0.99  -999.99     0.99      0.0000     -0.00 LINEAR  3.8098E-03    179.31  0.0000E+00      0.00
  116.00    344.00      0.71  -999.99     0.71      0.0000     -0.00 LINEAR  3.6877E-03    166.44  0.0000E+00      0.00
  120.00    344.00      0.37  -999.99     0.37      0.0000     -0.00 LINEAR  3.5473E-03    153.65  0.0000E+00      0.00
  124.00    344.00     -0.02  -999.99    -0.02      0.0000     -0.00 LINEAR  3.3897E-03    140.98  0.0000E+00      0.00
  128.00    344.00     -0.48  -999.99    -0.48      0.0000     -0.00 LINEAR  3.2159E-03    128.50  0.0000E+00      0.00
  132.00    344.00     -1.01  -999.99    -1.01      0.0000     -0.00 LINEAR  3.0269E-03    116.27  0.0000E+00      0.00
  136.00    344.00     -1.61  -999.99    -1.61      0.0000     -0.00 LINEAR  2.8238E-03    104.35  0.0000E+00      0.00
  140.00    344.00     -2.30  -999.99    -2.30      0.0000     -0.00 LINEAR  2.6078E-03     92.80  0.0000E+00      0.00
  144.00    344.00     -3.10  -999.99    -3.10      0.0000      0.00 LINEAR  2.3801E-03     81.66  0.0000E+00      0.00
  148.00    344.00     -4.01  -999.99    -4.01      0.0000      0.00 LINEAR  2.1418E-03     71.01  0.0000E+00      0.00
  152.00    344.00     -5.08  -999.99    -5.08      0.0000      0.00 LINEAR  1.8943E-03     60.89  0.0000E+00      0.00
  156.00    344.00     -6.34  -999.99    -6.34      0.0000      0.00 LINEAR  1.6386E-03     51.34  0.0000E+00      0.00
  160.00    344.00     -7.86  -999.99    -7.86      0.0000      0.00 LINEAR  1.3760E-03     42.42  0.0000E+00      0.00
  164.00    344.00     -9.74  -999.99    -9.74      0.0000      0.00 LINEAR  1.1076E-03     34.16  0.0000E+00      0.00
  168.00    344.00    -12.20  -999.99   -12.20      0.0000      0.00 LINEAR  8.3470E-04     26.62  0.0000E+00      0.00
  172.00    344.00    -15.69  -999.99   -15.69      0.0000      0.00 LINEAR  5.5836E-04     19.82  0.0000E+00      0.00
  176.00    344.00    -21.69  -999.99   -21.69      0.0000      0.00 LINEAR  2.7975E-04     13.79  0.0000E+00      0.00
  180.00    344.00   -999.99  -999.99  -999.99      0.0000      0.00         4.0927E-14   -171.42  0.0000E+00      0.00
    0.00    348.00   -999.99  -999.99  -999.99      0.0000      0.00         0.0000E+00      0.00  0.0000E+00      0.00
    4.00    348.00    -21.68  -999.99   -21.68      0.0000      0.00 LINEAR  2.8029E-04     -4.57  0.0000E+00      0.00
    8.00    348.00    -15.67  -999.99   -15.67      0.0000      0.00 LINEAR  5.5944E-04     -0.62  0.0000E+00      0.00
   12.00    348.00    -12.18  -999.99   -12.18      0.0000      0.00 LINEAR  8.3629E-04      2.46  0.0000E+00      0.00
   16.00    348.00     -9.72  -999.99    -9.72      0.0000      0.00 LINEAR  1.1097E-03      4.64  0.0000E+00      0.00
   20.00    348.00     -7.84  -999.99    -7.84      0.0000      0.00 LINEAR  1.3785E-03      5.93  0.0000E+00      0.00
   24.00    348.00     -6.32  -999.99    -6.32      0.0000      0.00 LINEAR  1.6415E-03      6.31  0.0000E+00      0.00
   28.00    348.00     -5.06  -999.99    -5.06      0.0000      0.00 LINEAR  1.8975E-03      5.77  0.0000E+00      0.00
   32.00    348.00     -4.00  -999.99    -4.00      0.0000      0.00 LINEAR  2.1453E-03      4.34  0.0000E+00      0.00
   36.00    348.00     -3.08  -999.99    -3.08      0.0000      0.00 LINEAR  2.3838E-03      2.00  0.0000E+00      0.00
   40.00    348.00     -2.29  -999.99    -2.29      0.0000      0.00 LINEAR  2.6117E-03     -1.23  0.0000E+00      0.00
   44.00    348.00     -1.60  -999.99    -1.60      0.0000      0.00 LINEAR  2.8277E-03     -5.33  0.0000E+00      0.00
   48.00    348.00     -1.00  -999.99    -1.00      0.0000      0.00 LINEAR  3.0308E-03    -10.29  0.0000E+00      0.00
   52.00    348.00     -0.47  -999.99    -0.47      0.0000      0.00 LINEAR  3.2197E-03    -16.07  0.0000E+00      0.00
   56.00    348.00     -0.01  -999.99    -0.01      0.0000      0.00 LINEAR  3.3934E-03    -22.65  0.0000E+00      0.00
   60.00    348.00      0.38  -999.99     0.38      0.0000      0.00 LINEAR  3.5507E-03    -30.01  0.0000E+00      0.00
   64.00    348.00      0.71  -999.99     0.71      0.0000      0.00 LINEAR  3.6908E-03    -38.09  0.0000E+00      0.00
   68.00    348.00      1.00  -999.99     1.00      0.0000      0.00 LINEAR  3.8126E-03    -46.88  0.0000E+00      0.00
   72.00    348.00      1.23  -999.99     1.23      0.0000      0.00 LINEAR  3.9154E-03    -56.31  0.0000E+00      0.00
   76.00    348.00      1.41  -999.99     1.41      0.0000      0.00 LINEAR  3.9984E-03    -66.35  0.0000E+00      0.00
   80.00    348.00      1.55  -999.99     1.55      0.0000      0.00 LINEAR  4.0611E-03    -76.94  0.0000E+00      0.00
   84.00    348.00      1.63  -999.99     1.63      0.0000      0.00 LINEAR  4.1031E-03    -88.04  0.0000E+00      0.00
   88.00    348.00      1.68  -999.99     1.68      0.0000     -0.00 LINEAR  4.1240E-03    -99.58  0.0000E+00      0.00
   92.00    348.00      1.68  -999.99     1.68      0.0000     -0.00 LINEAR  4.1237E-03   -111.53  0.0000E+00      0.00
   96.00    348.00      1.63  -999.99     1.63      0.0000     -0.00 LINEAR  4.1022E-03   -123.80  0.0000E+00      0.00
  100.00    348.00      1.54  -999.99     1.54      0.0000     -0.00 LINEAR  4.0597E-03   -136.36  0.0000E+00      0.00
  104.00    348.00      1.41  -999.99     1.41      0.0000     -0.00 LINEAR  3.9965E-03   -149.12  0.0000E+00      0.00
  108.00    348.00      1.22  -999.99     1.22      0.0000     -0.00 LINEAR  3.9130E-03   -162.04  0.0000E+00      0.00
  112.00    348.00      0.99  -999.99     0.99      0.0000     -0.00 LINEAR  3.8098E-03   -175.05  0.0000E+00      0.00
  116.00    348.00      0.71  -999.99     0.71      0.0000     -0.00 LINEAR  3.6877E-03    171.92  0.0000E+00      0.00
  120.00    348.00      0.37  -999.99     0.37      0.0000     -0.00 LINEAR  3.5473E-03    158.92  0.0000E+00      0.00
  124.00    348.00     -0.02  -999.99    -0.02      0.0000     -0.00 LINEAR  3.3897E-03    146.03  0.0000E+00      0.00
  128.00    348.00     -0.48  -999.99    -0.48      0.0000     -0.00 LINEAR  3.2159E-03    133.30  0.0000E+00      0.00
  132.00    348.00     -1.01  -999.99    -1.01      0.0000     -0.00 LINEAR  3.0269E-03    120.80  0.0000E+00      0.00
  136.00    348.00     -1.61  -999.99    -1.61      0.0000     -0.00 LINEAR  2.8238E-03    108.58  0.0000E+00      0.00
  140.00    348.00     -2.30  -999.99    -2.30      0.0000     -0.00 LINEAR  2.6078E-03     96.71  0.0000E+00      0.00
  144.00    348.00     -3.10  -999.99    -3.10      0.0000      0.00 LINEAR  2.3801E-03     85.24  0.0000E+00      0.00
  148.00    348.00     -4.01  -999.99    -4.01      0.0000      0.00 LINEAR  2.1418E-03     74.24  0.0000E+00      0.00
  152.00    348.00     -5.08  -999.99    -5.08      0.0000      0.00 LINEAR  1.8943E-03     63.74  0.0000E+00      0.00
  156.00    348.00     -6.34  -999.99    -6.34      0.0000      0.00 LINEAR  1.6386E-03     53.82  0.0000E+00      0.00
  160.00    348.00     -7.86  -999.99    -7.86      0.0000      0.00 LINEAR  1.3760E-03     44.50  0.0000E+00      0.00
  164.00    348.00     -9.74  -999.99    -9.74      0.0000      0.00 LINEAR  1.1076E-03     35.84  0.0000E+00      0.00
  168.00    348.00    -12.20  -999.99   -12.20      0.0000      0.00 LINEAR  8.3470E-04     27.88  0.0000E+00      0.00
  172.00    348.00    -15.69  -999.99   -15.69      0.0000      0.00 LINEAR  5.5836E-04     20.66  0.0000E+00      0.00
  176.00    348.00    -21.69  -999.99   -21.69      0.0000      0.00 LINEAR  2.7975E-04     14.22  0.0000E+00      0.00
  180.00    348.00   -999.99  -999.99  -999.99      0.0000      0.00         4.0927E-14   -171.42  0.0000E+00      0.00
    0.00    352.00   -999.99  -999.99  -999.99      0.0000      0.00         0.0000E+00      0.00  0.0000E+00      0.00
    4.00    352.00    -21.68  -999.99   -21.68      0.0000      0.00 LINEAR  2.8029E-04     -4.17  0.0000E+00      0.00
    8.00    352.00    -15.67  -999.99   -15.67      0.0000      0.00 LINEAR  5.5944E-04      0.18  0.0000E+00      0.00
   12.00    352.00    -12.18  -999.99   -12.18      0.0000      0.00 LINEAR  8.3629E-04      3.65  0.0000E+00      0.00
   16.00    352.00     -9.72  -999.99    -9.72      0.0000      0.00 LINEAR  1.1097E-03      6.22  0.0000E+00      0.00
   20.00    352.00     -7.84  -999.99    -7.84      0.0000      0.00 LINEAR  1.3785E-03      7.88  0.0000E+00      0.00
   24.00    352.00     -6.32  -999.99    -6.32      0.0000      0.00 LINEAR  1.6415E-03      8.63  0.0000E+00      0.00
   28.00    352.00     -5.06  -999.99    -5.06      0.0000      0.00 LINEAR  1.8975E-03      8.46  0.0000E+00      0.00
   32.00    352.00     -4.00  -999.99    -4.00      0.0000      0.00 LINEAR  2.1453E-03      7.37  0.0000E+00      0.00
   36.00    352.00     -3.08  -999.99    -3.08      0.0000      0.00 LINEAR  2.3838E-03      5.36  0.0000E+00      0.00
   40.00    352.00     -2.29  -999.99    -2.29      0.0000      0.00 LINEAR  2.6117E-03      2.45  0.0000E+00      0.00
   44.00    352.00     -1.60  -999.99    -1.60      0.0000      0.00 LINEAR  2.8277E-03     -1.36  0.0000E+00      0.00
   48.00    352.00     -1.00  -999.99    -1.00      0.0000      0.00 LINEAR  3.0308E-03     -6.03  0.0000E+00      0.00
   52.00    352.00     -0.47  -999.99    -0.47      0.0000      0.00 LINEAR  3.2197E-03    -11.56  0.0000E+00      0.00
   56.00    352.00     -0.01  -999.99    -0.01      0.0000      0.00 LINEAR  3.3934E-03    -17.91  0.0000E+00      0.00
   60.00    352.00      0.38  -999.99     0.38      0.0000      0.00 LINEAR  3.5507E-03    -25.05  0.0000E+00      0.00
   64.00    352.00      0.71  -999.99     0.71      0.0000      0.00 LINEAR  3.6908E-03    -32.95  0.0000E+00      0.00
   68.00    352.00      1.00  -999.99     1.00      0.0000      0.00 LINEAR  3.8126E-03    -41.57  0.0000E+00      0.00
   72.00    352.00      1.23  -999.99     1.23      0.0000      0.00 LINEAR  3.9154E-03    -50.86  0.0000E+00      0.00
   76.00    352.00      1.41  -999.99     1.41      0.0000      0.00 LINEAR  3.9984E-03    -60.79  0.0000E+00      0.00
   80.00    352.00      1.55  -999.99     1.55      0.0000      0.00 LINEAR  4.0611E-03    -71.30  0.0000E+00      0.00
   84.00    352.00      1.63  -999.99     1.63      0.0000      0.00 LINEAR  4.1031E-03    -82.34  0.0000E+00      0.00
   88.00    352.00      1.68  -999.99     1.68      0.0000     -0.00 LINEAR  4.1240E-03    -93.86  0.0000E+00      0.00
   92.00    352.00      1.68  -999.99     1.68      0.0000     -0.00 LINEAR  4.1237E-03   -105.81  0.0000E+00      0.00
   96.00    352.00      1.63  -999.99     1.63      0.0000     -0.00 LINEAR  4.1022E-03   -118.11  0.0000E+00      0.00
  100.00    352.00      1.54  -999.99     1.54      0.0000     -0.00 LINEAR  4.0597E-03   -130.72  0.0000E+00      0.00
  104.00    352.00      1.41  -999.99     1.41      0.0000     -0.00 LINEAR  3.9965E-03   -143.57  0.0000E+00      0.00
  108.00    352.00      1.22  -999.99     1.22      0.0000     -0.00 LINEAR  3.9130E-03   -156.60  0.0000E+00      0.00
  112.00    352.00      0.99  -999.99     0.99      0.0000     -0.00 LINEAR  3.8098E-03   -169.74  0.0000E+00      0.00
  116.00    352.00      0.71  -999.99     0.71      0.0000     -0.00 LINEAR  3.6877E-03    177.06  0.0000E+00      0.00
  120.00    352.00      0.37  -999.99     0.37      0.0000     -0.00 LINEAR  3.5473E-03    163.88  0.0000E+00      0.00
  124.00    352.00     -0.02  -999.99    -0.02      0.0000     -0.00 LINEAR  3.3897E-03    150.77  0.0000E+00      0.00
  128.00    352.00     -0.48  -999.99    -0.48      0.0000     -0.00 LINEAR  3.2159E-03    137.81  0.0000E+00      0.00
  132.00    352.00     -1.01  -999.99    -1.01      0.0000     -0.00 LINEAR  3.0269E-03    125.05  0.0000E+00      0.00
  136.00    352.00     -1.61  -999.99    -1.61      0.0000     -0.00 LINEAR  2.8238E-03    112.55  0.0000E+00      0.00
  140.00    352.00     -2.30  -999.99    -2.30      0.0000     -0.00 LINEAR  2.6078E-03    100.39  0.0000E+00      0.00
  144.00    352.00     -3.10  -999.99    -3.10      0.0000      0.00 LINEAR  2.3801E-03     88.61  0.0000E+00      0.00
  148.00    352.00     -4.01  -999.99    -4.01      0.0000      0.00 LINEAR  2.1418E-03     77.27  0.0000E+00      0.00
  152.00    352.00     -5.08  -999.99    -5.08      0.0000      0.00 LINEAR  1.8943E-03     66.43  0.0000E+00      0.00
  156.00    352.00     -6.34  -999.99    -6.34      0.0000      0.00 LINEAR  1.6386E-03     56.14  0.0000E+00      0.00
  160.00    352.00     -7.86  -999.99    -7.86      0.0000      0.00 LINEAR  1.3760E-03     46.46  0.0000E+00      0.00
  164.00    352.00     -9.74  -999.99    -9.74      0.0000      0.00 LINEAR  1.1076E-03     37.42  0.0000E+00      0.00
  168.00    352.00    -12.20  -999.99   -12.20      0.0000      0.00 LINEAR  8.3470E-04     29.07  0.0000E+00      0.00
  172.00    352.00    -15.69  -999.99   -15.69      0.0000      0.00 LINEAR  5.5836E-04     21.46  0.0000E+00      0.00
  176.00    352.00    -21.69  -999.99   -21.69      0.0000      0.00 LINEAR  2.7975E-04     14.62  0.0000E+00      0.00
  180.00    352.00   -999.99  -999.99  -999.99      0.0000      0.00         4.0927E-14   -171.42  0.0000E+00      0.00
    0.00    356.00   -999.99  -999.99  -999.99      0.0000      0.00         0.0000E+00      0.00  0.0000E+00      0.00
    4.00    356.00    -21.68  -999.99   -21.68      0.0000      0.00 LINEAR  2.8029E-04     -3.80  0.0000E+00      0.00
    8.00    356.00    -15.67  -999.99   -15.67      0.0000      0.00 LINEAR  5.5944E-04      0.92  0.0000E+00      0.00
   12.00    356.00    -12.18  -999.99   -12.18      0.0000      0.00 LINEAR  8.3629E-04      4.75  0.0000E+00      0.00
   16.00    356.00     -9.72  -999.99    -9.72      0.0000      0.00 LINEAR  1.1097E-03      7.69  0.0000E+00      0.00
   20.00    356.00     -7.84  -999.99    -7.84      0.0000      0.00 LINEAR  1.3785E-03      9.71  0.0000E+00      0.00
   24.00    356.00     -6.32  -999.99    -6.32      0.0000      0.00 LINEAR  1.6415E-03     10.80  0.0000E+00      0.00
   28.00    356.00     -5.06  -999.99    -5.06      0.0000      0.00 LINEAR  1.8975E-03     10.96  0.0000E+00      0.00
   32.00    356.00     -4.00  -999.99    -4.00      0.0000      0.00 LINEAR  2.1453E-03     10.19  0.0000E+00      0.00
   36.00    356.00     -3.08  -999.99    -3.08      0.0000      0.00 LINEAR  2.3838E-03      8.49  0.0000E+00      0.00
   40.00    356.00     -2.29  -999.99    -2.29      0.0000      0.00 LINEAR  2.6117E-03      5.87  0.0000E+00      0.00
   44.00    356.00     -1.60  -999.99    -1.60      0.0000      0.00 LINEAR  2.8277E-03      2.35  0.0000E+00      0.00
   48.00    356.00     -1.00  -999.99    -1.00      0.0000      0.00 LINEAR  3.0308E-03     -2.07  0.0000E+00      0.00
   52.00    356.00     -0.47  -999.99    -0.47      0.0000      0.00 LINEAR  3.2197E-03     -7.36  0.0000E+00      0.00
   56.00    356.00     -0.01  -999.99    -0.01      0.0000      0.00 LINEAR  3.3934E-03    -13.49  0.0000E+00      0.00
   60.00    356.00      0.38  -999.99     0.38      0.0000      0.00 LINEAR  3.5507E-03    -20.43  0.0000E+00      0.00
   64.00    356.00      0.71  -999.99     0.71      0.0000      0.00 LINEAR  3.6908E-03    -28.16  0.0000E+00      0.00
   68.00    356.00      1.00  -999.99     1.00      0.0000      0.00 LINEAR  3.8126E-03    -36.63  0.0000E+00      0.00
   72.00    356.00      1.23  -999.99     1.23      0.0000      0.00 LINEAR  3.9154E-03    -45.79  0.0000E+00      0.00
   76.00    356.00      1.41  -999.99     1.41      0.0000      0.00 LINEAR  3.9984E-03    -55.62  0.0000E+00      0.00
   80.00    356.00      1.55  -999.99     1.55      0.0000      0.00 LINEAR  4.0611E-03    -66.05  0.0000E+00      0.00
   84.00    356.00      1.63  -999.99     1.63      0.0000      0.00 LINEAR  4.1031E-03    -77.04  0.0000E+00      0.00
   88.00    356.00      1.68  -999.99     1.68      0.0000      0.00 LINEAR  4.1240E-03    -88.54  0.0000E+00      0.00
   92.00    356.00      1.68  -999.99     1.68      0.0000     -0.00 LINEAR  4.1237E-03   -100.48  0.0000E+00      0.00
   96.00    356.00      1.63  -999.99     1.63      0.0000     -0.00 LINEAR  4.1022E-03   -112.81  0.0000E+00      0.00
  100.00    356.00      1.54  -999.99     1.54      0.0000     -0.00 LINEAR  4.0597E-03   -125.47  0.0000E+00      0.00
  104.00    356.00      1.41  -999.99     1.41      0.0000     -0.00 LINEAR  3.9965E-03   -138.40  0.0000E+00      0.00
  108.00    356.00      1.22  -999.99     1.22      0.0000     -0.00 LINEAR  3.9130E-03   -151.53  0.0000E+00      0.00
  112.00    356.00      0.99  -999.99     0.99      0.0000     -0.00 LINEAR  3.8098E-03   -164.80  0.0000E+00      0.00
  116.00    356.00      0.71  -999.99     0.71      0.0000     -0.00 LINEAR  3.6877E-03   -178.15  0.0000E+00      0.00
  120.00    356.00      0.37  -999.99     0.37      0.0000     -0.00 LINEAR  3.5473E-03    168.50  0.0000E+00      0.00
  124.00    356.00     -0.02  -999.99    -0.02      0.0000     -0.00 LINEAR  3.3897E-03    155.19  0.0000E+00      0.00
  128.00    356.00     -0.48  -999.99    -0.48      0.0000     -0.00 LINEAR  3.2159E-03    142.01  0.0000E+00      0.00
  132.00    356.00     -1.01  -999.99    -1.01      0.0000     -0.00 LINEAR  3.0269E-03    129.01  0.0000E+00      0.00
  136.00    356.00     -1.61  -999.99    -1.61      0.0000     -0.00 LINEAR  2.8238E-03    116.26  0.0000E+00      0.00
  140.00    356.00     -2.30  -999.99    -2.30      0.0000     -0.00 LINEAR  2.6078E-03    103.81  0.0000E+00      0.00
  144.00    356.00     -3.10  -999.99    -3.10      0.0000     -0.00 LINEAR  2.3801E-03     91.74  0.0000E+00      0.00
  148.00    356.00     -4.01  -999.99    -4.01      0.0000      0.00 LINEAR  2.1418E-03     80.09  0.0000E+00      0.00
  152.00    356.00     -5.08  -999.99    -5.08      0.0000      0.00 LINEAR  1.8943E-03     68.93  0.0000E+00      0.00
  156.00    356.00     -6.34  -999.99    -6.34      0.0000      0.00 LINEAR  1.6386E-03     58.31  0.0000E+00      0.00
  160.00    356.00     -7.86  -999.99    -7.86      0.0000      0.00 LINEAR  1.3760E-03     48.28  0.0000E+00      0.00
  164.00    356.00     -9.74  -999.99    -9.74      0.0000      0.00 LINEAR  1.1076E-03     38.89  0.0000E+00      0.00
  168.00    356.00    -12.20  -999.99   -12.20      0.0000      0.00 LINEAR  8.3470E-04     30.18  0.0000E+00      0.00
  172.00    356.00    -15.69  -999.99   -15.69      0.0000      0.00 LINEAR  5.5836E-04     22.20  0.0000E+00      0.00
  176.00    356.00    -21.69  -999.99   -21.69      0.0000      0.00 LINEAR  2.7975E-04     14.99  0.0000E+00      0.00
  180.00    356.00   -999.99  -999.99  -999.99      0.0000      0.00         4.0927E-14   -171.42  0.0000E+00      0.00








*****  DATA CARD N0.   5 EN   0     0     0     0  0.00000E+00  0.00000E+00  0.00000E+00  0.00000E+00  0.00000E+00  0.00000E+00

  TOTAL RUN TIME: 40 msec