


                                __________________________________________
                               |                                          |
                               | NUMERICAL ELECTROMAGNETICS CODE (nec2++) |
                               | Translated to 'C++' in Double Precision  |
                               |        Version 1.5.1 [2014-01-02]        |
                               |__________________________________________|



                                -------- STRUCTURE SPECIFICATION --------
                                COORDINATES MUST BE INPUT IN
                                METERS OR BE SCALED TO METERS
                                BEFORE STRUCTURE INPUT IS ENDED
  WIRE                                                                                 SEG FIRST  LAST  TAG
   No:        X1         Y1         Z1         X2         Y2         Z2       RADIUS   No:   SEG   SEG  No:

     1      0.6096     0.0000     0.0000     0.6096     0.0000     0.4800     0.0010     8     1     8    1
     STRUCTURE SCALED BY FACTOR:    1.00000

     TOTAL SEGMENTS USED: 8   SEGMENTS IN A SYMMETRIC CELL: 8   SYMMETRY FLAG: 0


                               ---------- SEGMENTATION DATA ----------
                                        COORDINATES IN METERS
                            I+ AND I- INDICATE THE SEGMENTS BEFORE AND AFTER I

   SEG    COORDINATES OF SEGM CENTER     SEGM    ORIENTATION ANGLES    WIRE    CONNECTION DATA   TAG
   No:       X         Y         Z      LENGTH     ALPHA      BETA    RADIUS    I-     I    I+   NO:
     1    0.6096    0.0000    0.0300    0.0600   90.0000    0.0000    0.0010     0     1     2     1
     2    0.6096    0.0000    0.0900    0.0600   90.0000    0.0000    0.0010     1     2     3     1
     3    0.6096    0.0000    0.1500    0.0600   90.0000    0.0000    0.0010     2     3     4     1
     4    0.6096    0.0000    0.2100    0.0600   90.0000    0.0000    0.0010     3     4     5     1
     5    0.6096    0.0000    0.2700    0.0600   90.0000    0.0000    0.0010     4     5     6     1
     6    0.6096    0.0000    0.3300    0.0600   90.0000    0.0000    0.0010     5     6     7     1
     7    0.6096    0.0000    0.3900    0.0600   90.0000    0.0000    0.0010     6     7     8     1
     8    0.6096    0.0000    0.4500    0.0600   90.0000    0.0000    0.0010     7     8     0     1



*****  DATA CARD N0.   1 GN  -1     0     0     0  0.00000E+00  0.00000E+00  0.00000E+00  0.00000E+00  0.00000E+00  0.00000E+00
*****  DATA CARD N0.   2 FR   0     1     0     0  1.00000E+02  1.00000E+01  0.00000E+00  0.00000E+00  0.00000E+00  0.00000E+00
*****  DATA CARD N0.   3 EX   0     1     1     0  1.00000E+00  0.00000E+00  0.00000E+00  0.00000E+00  0.00000E+00  0.00000E+00
*****  DATA CARD N0.   4 RP   0    46    90  1000  0.00000E+00  0.00000E+00  4.00000E+00  4.00000E+00  0.00000E+00  0.00000E+00


                               --------- FREQUENCY --------
                               FREQUENCY=  1.0000E+02 MHZ
                               WAVELENGTH= 2.9980E+00 METERS


                        APPROXIMATE INTEGRATION EMPLOYED FOR SEGMENTS
                        THAT ARE MORE THAN 1.000 WAVELENGTHS APART



                          ------ STRUCTURE IMPEDANCE LOADING ------
                                 THIS STRUCTURE IS NOT LOADED



                            -------- ANTENNA ENVIRONMENT --------
                            FREE SPACE



                             ---------- MATRIX TIMING ----------
                               FILL= 0 msec  FACTOR: 0 msec


                      ----- ANTENNA INPUT PARAMETERS -----
  TAG   SEG       VOLTAGE (VOLTS)         CURRENT (AMPS)         IMPEDANCE (OHMS)        ADMITTANCE (MHOS)     POWER
  NO.   NO.     REAL      IMAGINARY     REAL      IMAGINARY     REAL      IMAGINARY    REAL       IMAGINARY   (WATTS)
   1     1  1.0000E+00  0.0000E+00  3.8542E-07  2.1831E-04  8.0869E+00 -4.5806E+03  3.8542E-07  2.1831E-04  1.9271E-07







                        ----- CURRENTS AND LOCATION -----
                            DISTANCES IN WAVELENGTHS 

   SEG  TAG    COORDINATES OF SEGM CENTER     SEGM    ------------- CURRENT (AMPS) -------------
   No:  No:       X         Y         Z      LENGTH     REAL      IMAGINARY    MAGN        PHASE
     1    1    0.2033    0.0000    0.0100   0.02001  3.8542E-07  2.1831E-04  2.1831E-04   89.899 
     2    1    0.2033    0.0000    0.0300   0.02001  9.0625E-07  2.3467E-04  2.3467E-04   89.779 
     3    1    0.2033    0.0000    0.0500   0.02001  1.2301E-06  1.9510E-04  1.9511E-04   89.639 
     4    1    0.2033    0.0000    0.0700   0.02001  1.3889E-06  1.6240E-04  1.6241E-04   89.510 
     5    1    0.2033    0.0000    0.0901   0.02001  1.3873E-06  1.2991E-04  1.2992E-04   89.388 
     6    1    0.2033    0.0000    0.1101   0.02001  1.2260E-06  9.6421E-05  9.6429E-05   89.272 
     7    1    0.2033    0.0000    0.1301   0.02001  9.0121E-07  6.1364E-05  6.1371E-05   89.159 
     8    1    0.2033    0.0000    0.1501   0.02001  3.8242E-07  2.3064E-05  2.3067E-05   89.050 






                               ---------- POWER BUDGET ---------
                               INPUT POWER   =  1.9271E-07 Watts
                               RADIATED POWER=  1.9271E-07 Watts
                               STRUCTURE LOSS=  0.0000E+00 Watts
                               NETWORK LOSS  =  0.0000E+00 Watts
                               EFFICIENCY    =  100.00 Percent


                         ----- RADIATION PATTERNS -----
 ---- ANGLES -----     ----- POWER GAINS -----       ---- POLARIZATION ----   ---- E(THETA) ----    ----- E(PHI) ------
  THETA      PHI       VERTC   HORIZ   TOTAL       AXIAL      TILT  SENSE   MAGNITUDE    PHASE    MAGNITUDE     PHASE
 DEGREES   DEGREES        DB       DB       DB       RATIO   DEGREES            VOLTS/M   DEGREES     VOLTS/M   DEGREES
    0.00      0.00   -999.99  -999.99  -999.99      0.0000      0.00         0.0000E+00      0.00  0.0000E+00      0.00
    4.00      0.00    -21.68  -999.99   -21.68      0.0000     -0.00 LINEAR  2.8029E-04   -154.43  0.0000E+00      0.00
    8.00      0.00    -15.67  -999.99   -15.67      0.0000     -0.00 LINEAR  5.5944E-04   -149.50  0.0000E+00      0.00
   12.00      0.00    -12.18  -999.99   -12.18      0.0000     -0.00 LINEAR  8.3629E-04   -144.72  0.0000E+00      0.00
   16.00      0.00     -9.72  -999.99    -9.72      0.0000     -0.00 LINEAR  1.1097E-03   -140.11  0.0000E+00      0.00
   20.00      0.00     -7.84  -999.99    -7.84      0.0000     -0.00 LINEAR  1.3785E-03   -135.70  0.0000E+00      0.00
   24.00      0.00     -6.32  -999.99    -6.32      0.0000     -0.00 LINEAR  1.6415E-03   -131.51  0.0000E+00      0.00
   28.00      0.00     -5.06  -999.99    -5.06      0.0000     -0.00 LINEAR  1.8975E-03   -127.55  0.0000E+00      0.00
   32.00      0.00     -4.00  -999.99    -4.00      0.0000     -0.00 LINEAR  2.1453E-03   -123.86  0.0000E+00      0.00
   36.00      0.00     -3.08  -999.99    -3.08      0.0000     -0.00 LINEAR  2.3838E-03   -120.43  0.0000E+00      0.00
   40.00      0.00     -2.29  -999.99    -2.29      0.0000     -0.00 LINEAR  2.6117E-03   -117.30  0.0000E+00      0.00
   44.00      0.00     -1.60  -999.99    -1.60      0.0000     -0.00 LINEAR  2.8277E-03   -114.48  0.0000E+00      0.00
   48.00      0.00     -1.00  -999.99    -1.00      0.0000     -0.00 LINEAR  3.0308E-03   -111.98  0.0000E+00      0.00
   52.00      0.00     -0.47  -999.99    -0.47      0.0000     -0.00 LINEAR  3.2197E-03   -109.82  0.0000E+00      0.00
   56.00      0.00     -0.01  -999.99    -0.01      0.0000     -0.00 LINEAR  3.3934E-03   -107.99  0.0000E+00      0.00
   60.00      0.00      0.38  -999.99     0.38      0.0000     -0.00 LINEAR  3.5507E-03   -106.53  0.0000E+00      0.00
   64.00      0.00      0.71  -999.99     0.71      0.0000     -0.00 LINEAR  3.6908E-03   -105.42  0.0000E+00      0.00
   68.00      0.00      1.00  -999.99     1.00      0.0000     -0.00 LINEAR  3.8126E-03   -104.68  0.0000E+00      0.00
   72.00      0.00      1.23  -999.99     1.23      0.0000     -0.00 LINEAR  3.9154E-03   -104.30  0.0000E+00      0.00
   76.00      0.00      1.41  -999.99     1.41      0.0000     -0.00 LINEAR  3.9984E-03   -104.30  0.0000E+00      0.00
   80.00      0.00      1.55  -999.99     1.55      0.0000     -0.00 LINEAR  4.0611E-03   -104.67  0.0000E+00      0.00
   84.00      0.00      1.63  -999.99     1.63      0.0000     -0.00 LINEAR  4.1031E-03   -105.41  0.0000E+00      0.00
   88.00      0.00      1.68  -999.99     1.68      0.0000     -0.00 LINEAR  4.1240E-03   -106.52  0.0000E+00      0.00
   92.00      0.00      1.68  -999.99     1.68      0.0000     -0.00 LINEAR  4.1237E-03   -107.98  0.0000E+00      0.00
   96.00      0.00      1.63  -999.99     1.63      0.0000     -0.00 LINEAR  4.1022E-03   -109.80  0.0000E+00      0.00
  100.00      0.00      1.54  -999.99     1.54      0.0000     -0.00 LINEAR  4.0597E-03   -111.96  0.0000E+00      0.00
  104.00      0.00      1.41  -999.99     1.41      0.0000     -0.00 LINEAR  3.9965E-03   -114.45  0.0000E+00      0.00
  108.00      0.00      1.22  -999.99     1.22      0.0000     -0.00 LINEAR  3.9130E-03   -117.27  0.0000E+00      0.00
  112.00      0.00      0.99  -999.99     0.99      0.0000     -0.00 LINEAR  3.8098E-03   -120.39  0.0000E+00      0.00
  116.00      0.00      0.71  -999.99     0.71      0.0000     -0.00 LINEAR  3.6877E-03   -123.80  0.0000E+00      0.00
  120.00      0.00      0.37  -999.99     0.37      0.0000     -0.00 LINEAR  3.5473E-03   -127.49  0.0000E+00      0.00
  124.00      0.00     -0.02  -999.99    -0.02      0.0000     -0.00 LINEAR  3.3897E-03   -131.44  0.0000E+00      0.00
  128.00      0.00     -0.48  -999.99    -0.48      0.0000     -0.00 LINEAR  3.2159E-03   -135.62  0.0000E+00      0.00
  132.00      0.00     -1.01  -999.99    -1.01      0.0000     -0.00 LINEAR  3.0269E-03   -140.03  0.0000E+00      0.00
  136.00      0.00     -1.61  -999.99    -1.61      0.0000     -0.00 LINEAR  2.8238E-03   -144.62  0.0000E+00      0.00
  140.00      0.00     -2.30  -999.99    -2.30      0.0000     -0.00 LINEAR  2.6078E-03   -149.40  0.0000E+00      0.00
  144.00      0.00     -3.10  -999.99    -3.10      0.0000     -0.00 LINEAR  2.3801E-03   -154.32  0.0000E+00      0.00
  148.00      0.00     -4.01  -999.99    -4.01      0.0000     -0.00 LINEAR  2.1418E-03   -159.37  0.0000E+00      0.00
  152.00      0.00     -5.08  -999.99    -5.08      0.0000     -0.00 LINEAR  1.8943E-03   -164.52  0.0000E+00      0.00
  156.00      0.00     -6.34  -999.99    -6.34      0.0000     -0.00 LINEAR  1.6386E-03   -169.75  0.0000E+00      0.00
  160.00      0.00     -7.86  -999.99    -7.86      0.0000     -0.00 LINEAR  1.3760E-03   -175.03  0.0000E+00      0.00
  164.00      0.00     -9.74  -999.99    -9.74      0.0000     -0.00 LINEAR  1.1076E-03    179.66  0.0000E+00      0.00
  168.00      0.00    -12.20  -999.99   -12.20      0.0000     -0.00 LINEAR  8.3470E-04    174.35  0.0000E+00      0.00
  172.00      0.00    -15.69  -999.99   -15.69      0.0000     -0.00 LINEAR  5.5836E-04    169.07  0.0000E+00      0.00
  176.00      0.00    -21.69  -999.99   -21.69      0.0000     -0.00 LINEAR  2.7975E-04    163.84  0.0000E+00      0.00
  180.00      0.00   -999.99  -999.99  -999.99      0.0000      0.00         4.0927E-14    -21.32  0.0000E+00      0.00
    0.00      4.00   -999.99  -999.99  -999.99      0.0000      0.00         0.0000E+00      0.00  0.0000E+00      0.00
    4.00      4.00    -21.68  -999.99   -21.68      0.0000     -0.00 LINEAR  2.8029E-04   -154.44  0.0000E+00      0.00
    8.00      4.00    -15.67  -999.99   -15.67      0.0000     -0.00 LINEAR  5.5944E-04   -149.52  0.0000E+00      0.00
   12.00      4.00    -12.18  -999.99   -12.18      0.0000     -0.00 LINEAR  8.3629E-04   -144.76  0.0000E+00      0.00
   16.00      4.00     -9.72  -999.99    -9.72      0.0000     -0.00 LINEAR  1.1097E-03   -140.16  0.0000E+00      0.00
   20.00      4.00     -7.84  -999.99    -7.84      0.0000     -0.00 LINEAR  1.3785E-03   -135.76  0.0000E+00      0.00
   24.00      4.00     -6.32  -999.99    -6.32      0.0000     -0.00 LINEAR  1.6415E-03   -131.58  0.0000E+00      0.00
   28.00      4.00     -5.06  -999.99    -5.06      0.0000     -0.00 LINEAR  1.8975E-03   -127.64  0.0000E+00      0.00
   32.00      4.00     -4.00  -999.99    -4.00      0.0000     -0.00 LINEAR  2.1453E-03   -123.95  0.0000E+00      0.00
   36.00      4.00     -3.08  -999.99    -3.08      0.0000     -0.00 LINEAR  2.3838E-03   -120.54  0.0000E+00      0.00
   40.00      4.00     -2.29  -999.99    -2.29      0.0000     -0.00 LINEAR  2.6117E-03   -117.42  0.0000E+00      0.00
   44.00      4.00     -1.60  -999.99    -1.60      0.0000     -0.00 LINEAR  2.8277E-03   -114.61  0.0000E+00      0.00
   48.00      4.00     -1.00  -999.99    -1.00      0.0000     -0.00 LINEAR  3.0308E-03   -112.11  0.0000E+00      0.00
   52.00      4.00     -0.47  -999.99    -0.47      0.0000     -0.00 LINEAR  3.2197E-03   -109.96  0.0000E+00      0.00
   56.00      4.00     -0.01  -999.99    -0.01      0.0000     -0.00 LINEAR  3.3934E-03   -108.14  0.0000E+00      0.00
   60.00      4.00      0.38  -999.99     0.38      0.0000     -0.00 LINEAR  3.5507E-03   -106.68  0.0000E+00      0.00
   64.00      4.00      0.71  -999.99     0.71      0.0000     -0.00 LINEAR  3.6908E-03   -105.58  0.0000E+00      0.00
   68.00      4.00      1.00  -999.99     1.00      0.0000     -0.00 LINEAR  3.8126E-03   -104.84  0.0000E+00      0.00
   72.00      4.00      1.23  -999.99     1.23      0.0000     -0.00 LINEAR  3.9154E-03   -104.47  0.0000E+00      0.00
   76.00      4.00      1.41  -999.99     1.41      0.0000     -0.00 LINEAR  3.9984E-03   -104.47  0.0000E+00      0.00
   80.00      4.00      1.55  -999.99     1.55      0.0000     -0.00 LINEAR  4.0611E-03   -104.85  0.0000E+00      0.00
   84.00      4.00      1.63  -999.99     1.63      0.0000     -0.00 LINEAR  4.1031E-03   -105.59  0.0000E+00      0.00
   88.00      4.00      1.68  -999.99     1.68      0.0000     -0.00 LINEAR  4.1240E-03   -106.69  0.0000E+00      0.00
   92.00      4.00      1.68  -999.99     1.68      0.0000     -0.00 LINEAR  4.1237E-03   -108.16  0.0000E+00      0.00
   96.00      4.00      1.63  -999.99     1.63      0.0000     -0.00 LINEAR  4.1022E-03   -109.97  0.0000E+00      0.00
  100.00      4.00      1.54  -999.99     1.54      0.0000     -0.00 LINEAR  4.0597E-03   -112.13  0.0000E+00      0.00
  104.00      4.00      1.41  -999.99     1.41      0.0000     -0.00 LINEAR  3.9965E-03   -114.63  0.0000E+00      0.00
  108.00      4.00      1.22  -999.99     1.22      0.0000     -0.00 LINEAR  3.9130E-03   -117.44  0.0000E+00      0.00
  112.00      4.00      0.99  -999.99     0.99      0.0000     -0.00 LINEAR  3.8098E-03   -120.56  0.0000E+00      0.00
  116.00      4.00      0.71  -999.99     0.71      0.0000     -0.00 LINEAR  3.6877E-03   -123.96  0.0000E+00      0.00
  120.00      4.00      0.37  -999.99     0.37      0.0000     -0.00 LINEAR  3.5473E-03   -127.65  0.0000E+00      0.00
  124.00      4.00     -0.02  -999.99    -0.02      0.0000     -0.00 LINEAR  3.3897E-03   -131.59  0.0000E+00      0.00
  128.00      4.00     -0.48  -999.99    -0.48      0.0000     -0.00 LINEAR  3.2159E-03   -135.76  0.0000E+00      0.00
  132.00      4.00     -1.01  -999.99    -1.01      0.0000     -0.00 LINEAR  3.0269E-03   -140.16  0.0000E+00      0.00
  136.00      4.00     -1.61  -999.99    -1.61      0.0000     -0.00 LINEAR  2.8238E-03   -144.75  0.0000E+00      0.00
  140.00      4.00     -2.30  -999.99    -2.30      0.0000     -0.00 LINEAR  2.6078E-03   -149.51  0.0000E+00      0.00
  144.00      4.00     -3.10  -999.99    -3.10      0.0000     -0.00 LINEAR  2.3801E-03   -154.42  0.0000E+00      0.00
  148.00      4.00     -4.01  -999.99    -4.01      0.0000     -0.00 LINEAR  2.1418E-03   -159.46  0.0000E+00      0.00
  152.00      4.00     -5.08  -999.99    -5.08      0.0000     -0.00 LINEAR  1.8943E-03   -164.60  0.0000E+00      0.00
  156.00      4.00     -6.34  -999.99    -6.34      0.0000     -0.00 LINEAR  1.6386E-03   -169.82  0.0000E+00      0.00
  160.00      4.00     -7.86  -999.99    -7.86      0.0000     -0.00 LINEAR  1.3760E-03   -175.09  0.0000E+00      0.00
  164.00      4.00     -9.74  -999.99    -9.74      0.0000     -0.00 LINEAR  1.1076E-03    179.61  0.0000E+00      0.00
  168.00      4.00    -12.20  -999.99   -12.20      0.0000     -0.00 LINEAR  8.3470E-04    174.32  0.0000E+00      0.00
  172.00      4.00    -15.69  -999.99   -15.69      0.0000     -0.00 LINEAR  5.5836E-04    169.05  0.0000E+00      0.00
  176.00      4.00    -21.69  -999.99   -21.69      0.0000     -0.00 LINEAR  2.7975E-04    163.83  0.0000E+00      0.00
  180.00      4.00   -999.99  -999.99  -999.99      0.0000      0.00         4.0927E-14    -21.32  0.0000E+00      0.00
    0.00      8.00   -999.99  -999.99  -999.99      0.0000      0.00         0.0000E+00      0.00  0.0000E+00      0.00
    4.00      8.00    -21.68  -999.99   -21.68      0.0000     -0.00 LINEAR  2.8029E-04   -154.48  0.0000E+00      0.00
    8.00      8.00    -15.67  -999.99   -15.67      0.0000     -0.00 LINEAR  5.5944E-04   -149.60  0.0000E+00      0.00
   12.00      8.00    -12.18  -999.99   -12.18      0.0000     -0.00 LINEAR  8.3629E-04   -144.87  0.0000E+00      0.00
   16.00      8.00     -9.72  -999.99    -9.72      0.0000     -0.00 LINEAR  1.1097E-03   -140.31  0.0000E+00      0.00
   20.00      8.00     -7.84  -999.99    -7.84      0.0000     -0.00 LINEAR  1.3785E-03   -135.95  0.0000E+00      0.00
   24.00      8.00     -6.32  -999.99    -6.32      0.0000     -0.00 LINEAR  1.6415E-03   -131.80  0.0000E+00      0.00
   28.00      8.00     -5.06  -999.99    -5.06      0.0000     -0.00 LINEAR  1.8975E-03   -127.89  0.0000E+00      0.00
   32.00      8.00     -4.00  -999.99    -4.00      0.0000     -0.00 LINEAR  2.1453E-03   -124.23  0.0000E+00      0.00
   36.00      8.00     -3.08  -999.99    -3.08      0.0000     -0.00 LINEAR  2.3838E-03   -120.85  0.0000E+00      0.00
   40.00      8.00     -2.29  -999.99    -2.29      0.0000     -0.00 LINEAR  2.6117E-03   -117.76  0.0000E+00      0.00
   44.00      8.00     -1.60  -999.99    -1.60      0.0000     -0.00 LINEAR  2.8277E-03   -114.98  0.0000E+00      0.00
   48.00      8.00     -1.00  -999.99    -1.00      0.0000     -0.00 LINEAR  3.0308E-03   -112.51  0.0000E+00      0.00
   52.00      8.00     -0.47  -999.99    -0.47      0.0000     -0.00 LINEAR  3.2197E-03   -110.38  0.0000E+00      0.00
   56.00      8.00     -0.01  -999.99    -0.01      0.0000     -0.00 LINEAR  3.3934E-03   -108.58  0.0000E+00      0.00
   60.00      8.00      0.38  -999.99     0.38      0.0000     -0.00 LINEAR  3.5507E-03   -107.14  0.0000E+00      0.00
   64.00      8.00      0.71  -999.99     0.71      0.0000     -0.00 LINEAR  3.6908E-03   -106.06  0.0000E+00      0.00
   68.00      8.00      1.00  -999.99     1.00      0.0000     -0.00 LINEAR  3.8126E-03   -105.34  0.0000E+00      0.00
   72.00      8.00      1.23  -999.99     1.23      0.0000     -0.00 LINEAR  3.9154E-03   -104.98  0.0000E+00      0.00
   76.00      8.00      1.41  -999.99     1.41      0.0000     -0.00 LINEAR  3.9984E-03   -104.99  0.0000E+00      0.00
   80.00      8.00      1.55  -999.99     1.55      0.0000     -0.00 LINEAR  4.0611E-03   -105.37  0.0000E+00      0.00
   84.00      8.00      1.63  -999.99     1.63      0.0000     -0.00 LINEAR  4.1031E-03   -106.12  0.0000E+00      0.00
   88.00      8.00      1.68  -999.99     1.68      0.0000     -0.00 LINEAR  4.1240E-03   -107.23  0.0000E+00      0.00
   92.00      8.00      1.68  -999.99     1.68      0.0000     -0.00 LINEAR  4.1237E-03   -108.69  0.0000E+00      0.00
   96.00      8.00      1.63  -999.99     1.63      0.0000     -0.00 LINEAR  4.1022E-03   -110.51  0.0000E+00      0.00
  100.00      8.00      1.54  -999.99     1.54      0.0000     -0.00 LINEAR  4.0597E-03   -112.66  0.0000E+00      0.00
  104.00      8.00      1.41  -999.99     1.41      0.0000     -0.00 LINEAR  3.9965E-03   -115.14  0.0000E+00      0.00
  108.00      8.00      1.22  -999.99     1.22      0.0000     -0.00 LINEAR  3.9130E-03   -117.95  0.0000E+00      0.00
  112.00      8.00      0.99  -999.99     0.99      0.0000     -0.00 LINEAR  3.8098E-03   -121.05  0.0000E+00      0.00
  116.00      8.00      0.71  -999.99     0.71      0.0000     -0.00 LINEAR  3.6877E-03   -124.44  0.0000E+00      0.00
  120.00      8.00      0.37  -999.99     0.37      0.0000     -0.00 LINEAR  3.5473E-03   -128.11  0.0000E+00      0.00
  124.00      8.00     -0.02  -999.99    -0.02      0.0000     -0.00 LINEAR  3.3897E-03   -132.03  0.0000E+00      0.00
  128.00      8.00     -0.48  -999.99    -0.48      0.0000     -0.00 LINEAR  3.2159E-03   -136.19  0.0000E+00      0.00
  132.00      8.00     -1.01  -999.99    -1.01      0.0000     -0.00 LINEAR  3.0269E-03   -140.55  0.0000E+00      0.00
  136.00      8.00     -1.61  -999.99    -1.61      0.0000     -0.00 LINEAR  2.8238E-03   -145.12  0.0000E+00      0.00
  140.00      8.00     -2.30  -999.99    -2.30      0.0000     -0.00 LINEAR  2.6078E-03   -149.85  0.0000E+00      0.00
  144.00      8.00     -3.10  -999.99    -3.10      0.0000     -0.00 LINEAR  2.3801E-03   -154.74  0.0000E+00      0.00
  148.00      8.00     -4.01  -999.99    -4.01      0.0000     -0.00 LINEAR  2.1418E-03   -159.74  0.0000E+00      0.00
  152.00      8.00     -5.08  -999.99    -5.08      0.0000     -0.00 LINEAR  1.8943E-03   -164.85  0.0000E+00      0.00
  156.00      8.00     -6.34  -999.99    -6.34      0.0000     -0.00 LINEAR  1.6386E-03   -170.04  0.0000E+00      0.00
  160.00      8.00     -7.86  -999.99    -7.86      0.0000     -0.00 LINEAR  1.3760E-03   -175.27  0.0000E+00      0.00
  164.00      8.00     -9.74  -999.99    -9.74      0.0000     -0.00 LINEAR  1.1076E-03    179.47  0.0000E+00      0.00
  168.00      8.00    -12.20  -999.99   -12.20      0.0000     -0.00 LINEAR  8.3470E-04    174.21  0.0000E+00      0.00
  172.00      8.00    -15.69  -999.99   -15.69      0.0000     -0.00 LINEAR  5.5836E-04    168.97  0.0000E+00      0.00
  176.00      8.00    -21.69  -999.99   -21.69      0.0000     -0.00 LINEAR  2.7975E-04    163.79  0.0000E+00      0.00
  180.00      8.00   -999.99  -999.99  -999.99      0.0000      0.00         4.0927E-14    -21.32  0.0000E+00      0.00
    0.00     12.00   -999.99  -999.99  -999.99      0.0000      0.00         0.0000E+00      0.00  0.0000E+00      0.00
    4.00     12.00    -21.68  -999.99   -21.68      0.0000     -0.00 LINEAR  2.8029E-04   -154.54  0.0000E+00      0.00
    8.00     12.00    -15.67  -999.99   -15.67      0.0000     -0.00 LINEAR  5.5944E-04   -149.72  0.0000E+00      0.00
   12.00     12.00    -12.18  -999.99   -12.18      0.0000     -0.00 LINEAR  8.3629E-04   -145.05  0.0000E+00      0.00
   16.00     12.00     -9.72  -999.99    -9.72      0.0000     -0.00 LINEAR  1.1097E-03   -140.55  0.0000E+00      0.00
   20.00     12.00     -7.84  -999.99    -7.84      0.0000     -0.00 LINEAR  1.3785E-03   -136.25  0.0000E+00      0.00
   24.00     12.00     -6.32  -999.99    -6.32      0.0000     -0.00 LINEAR  1.6415E-03   -132.16  0.0000E+00      0.00
   28.00     12.00     -5.06  -999.99    -5.06      0.0000     -0.00 LINEAR  1.8975E-03   -128.30  0.0000E+00      0.00
   32.00     12.00     -4.00  -999.99    -4.00      0.0000     -0.00 LINEAR  2.1453E-03   -124.70  0.0000E+00      0.00
   36.00     12.00     -3.08  -999.99    -3.08      0.0000     -0.00 LINEAR  2.3838E-03   -121.37  0.0000E+00      0.00
   40.00     12.00     -2.29  -999.99    -2.29      0.0000     -0.00 LINEAR  2.6117E-03   -118.33  0.0000E+00      0.00
   44.00     12.00     -1.60  -999.99    -1.60      0.0000     -0.00 LINEAR  2.8277E-03   -115.59  0.0000E+00      0.00
   48.00     12.00     -1.00  -999.99    -1.00      0.0000     -0.00 LINEAR  3.0308E-03   -113.17  0.0000E+00      0.00
   52.00     12.00     -0.47  -999.99    -0.47      0.0000     -0.00 LINEAR  3.2197E-03   -111.08  0.0000E+00      0.00
   56.00     12.00     -0.01  -999.99    -0.01      0.0000     -0.00 LINEAR  3.3934E-03   -109.32  0.0000E+00      0.00
   60.00     12.00      0.38  -999.99     0.38      0.0000     -0.00 LINEAR  3.5507E-03   -107.91  0.0000E+00      0.00
   64.00     12.00      0.71  -999.99     0.71      0.0000     -0.00 LINEAR  3.6908E-03   -106.86  0.0000E+00      0.00
   68.00     12.00      1.00  -999.99     1.00      0.0000     -0.00 LINEAR  3.8126E-03   -106.16  0.0000E+00      0.00
   72.00     12.00      1.23  -999.99     1.23      0.0000     -0.00 LINEAR  3.9154E-03   -105.82  0.0000E+00      0.00
   76.00     12.00      1.41  -999.99     1.41      0.0000     -0.00 LINEAR  3.9984E-03   -105.85  0.0000E+00      0.00
   80.00     12.00      1.55  -999.99     1.55      0.0000     -0.00 LINEAR  4.0611E-03   -106.25  0.0000E+00      0.00
   84.00     12.00      1.63  -999.99     1.63      0.0000     -0.00 LINEAR  4.1031E-03   -107.00  0.0000E+00      0.00
   88.00     12.00      1.68  -999.99     1.68      0.0000     -0.00 LINEAR  4.1240E-03   -108.11  0.0000E+00      0.00
   92.00     12.00      1.68  -999.99     1.68      0.0000     -0.00 LINEAR  4.1237E-03   -109.58  0.0000E+00      0.00
   96.00     12.00      1.63  -999.99     1.63      0.0000     -0.00 LINEAR  4.1022E-03   -111.39  0.0000E+00      0.00
  100.00     12.00      1.54  -999.99     1.54      0.0000     -0.00 LINEAR  4.0597E-03   -113.53  0.0000E+00      0.00
  104.00     12.00      1.41  -999.99     1.41      0.0000     -0.00 LINEAR  3.9965E-03   -116.01  0.0000E+00      0.00
  108.00     12.00      1.22  -999.99     1.22      0.0000     -0.00 LINEAR  3.9130E-03   -118.79  0.0000E+00      0.00
  112.00     12.00      0.99  -999.99     0.99      0.0000     -0.00 LINEAR  3.8098E-03   -121.87  0.0000E+00      0.00
  116.00     12.00      0.71  -999.99     0.71      0.0000     -0.00 LINEAR  3.6877E-03   -125.24  0.0000E+00      0.00
  120.00     12.00      0.37  -999.99     0.37      0.0000     -0.00 LINEAR  3.5473E-03   -128.88  0.0000E+00      0.00
  124.00     12.00     -0.02  -999.99    -0.02      0.0000     -0.00 LINEAR  3.3897E-03   -132.77  0.0000E+00      0.00
  128.00     12.00     -0.48  -999.99    -0.48      0.0000     -0.00 LINEAR  3.2159E-03   -136.88  0.0000E+00      0.00
  132.00     12.00     -1.01  -999.99    -1.01      0.0000     -0.00 LINEAR  3.0269E-03   -141.21  0.0000E+00      0.00
  136.00     12.00     -1.61  -999.99    -1.61      0.0000     -0.00 LINEAR  2.8238E-03   -145.73  0.0000E+00      0.00
  140.00     12.00     -2.30  -999.99    -2.30      0.0000     -0.00 LINEAR  2.6078E-03   -150.42  0.0000E+00      0.00
  144.00     12.00     -3.10  -999.99    -3.10      0.0000     -0.00 LINEAR  2.3801E-03   -155.26  0.0000E+00      0.00
  148.00     12.00     -4.01  -999.99    -4.01      0.0000     -0.00 LINEAR  2.1418E-03   -160.21  0.0000E+00      0.00
  152.00     12.00     -5.08  -999.99    -5.08      0.0000     -0.00 LINEAR  1.8943E-03   -165.27  0.0000E+00      0.00
  156.00     12.00     -6.34  -999.99    -6.34      0.0000     -0.00 LINEAR  1.6386E-03   -170.40  0.0000E+00      0.00
  160.00     12.00     -7.86  -999.99    -7.86      0.0000     -0.00 LINEAR  1.3760E-03   -175.58  0.0000E+00      0.00
  164.00     12.00     -9.74  -999.99    -9.74      0.0000     -0.00 LINEAR  1.1076E-03    179.22  0.0000E+00      0.00
  168.00     12.00    -12.20  -999.99   -12.20      0.0000     -0.00 LINEAR  8.3470E-04    174.02  0.0000E+00      0.00
  172.00     12.00    -15.69  -999.99   -15.69      0.0000     -0.00 LINEAR  5.5836E-04    168.85  0.0000E+00      0.00
  176.00     12.00    -21.69  -999.99   -21.69      0.0000     -0.00 LINEAR  2.7975E-04    163.73  0.0000E+00      0.00
  180.00     12.00   -999.99  -999.99  -999.99      0.0000      0.00         4.0927E-14    -21.32  0.0000E+00      0.00
    0.00     16.00   -999.99  -999.99  -999.99      0.0000      0.00         0.0000E+00      0.00  0.0000E+00      0.00
    4.00     16.00    -21.68  -999.99   -21.68      0.0000     -0.00 LINEAR  2.8029E-04   -154.63  0.0000E+00      0.00
    8.00     16.00    -15.67  -999.99   -15.67      0.0000     -0.00 LINEAR  5.5944E-04   -149.89  0.0000E+00      0.00
   12.00     16.00    -12.18  -999.99   -12.18      0.0000     -0.00 LINEAR  8.3629E-04   -145.31  0.0000E+00      0.00
   16.00     16.00     -9.72  -999.99    -9.72      0.0000     -0.00 LINEAR  1.1097E-03   -140.89  0.0000E+00      0.00
   20.00     16.00     -7.84  -999.99    -7.84      0.0000     -0.00 LINEAR  1.3785E-03   -136.67  0.0000E+00      0.00
   24.00     16.00     -6.32  -999.99    -6.32      0.0000     -0.00 LINEAR  1.6415E-03   -132.66  0.0000E+00      0.00
   28.00     16.00     -5.06  -999.99    -5.06      0.0000     -0.00 LINEAR  1.8975E-03   -128.89  0.0000E+00      0.00
   32.00     16.00     -4.00  -999.99    -4.00      0.0000     -0.00 LINEAR  2.1453E-03   -125.36  0.0000E+00      0.00
   36.00     16.00     -3.08  -999.99    -3.08      0.0000     -0.00 LINEAR  2.3838E-03   -122.10  0.0000E+00      0.00
   40.00     16.00     -2.29  -999.99    -2.29      0.0000     -0.00 LINEAR  2.6117E-03   -119.13  0.0000E+00      0.00
   44.00     16.00     -1.60  -999.99    -1.60      0.0000     -0.00 LINEAR  2.8277E-03   -116.45  0.0000E+00      0.00
   48.00     16.00     -1.00  -999.99    -1.00      0.0000     -0.00 LINEAR  3.0308E-03   -114.09  0.0000E+00      0.00
   52.00     16.00     -0.47  -999.99    -0.47      0.0000     -0.00 LINEAR  3.2197E-03   -112.05  0.0000E+00      0.00
   56.00     16.00     -0.01  -999.99    -0.01      0.0000     -0.00 LINEAR  3.3934E-03   -110.34  0.0000E+00      0.00
   60.00     16.00      0.38  -999.99     0.38      0.0000     -0.00 LINEAR  3.5507E-03   -108.98  0.0000E+00      0.00
   64.00     16.00      0.71  -999.99     0.71      0.0000     -0.00 LINEAR  3.6908E-03   -107.97  0.0000E+00      0.00
   68.00     16.00      1.00  -999.99     1.00      0.0000     -0.00 LINEAR  3.8126E-03   -107.30  0.0000E+00      0.00
   72.00     16.00      1.23  -999.99     1.23      0.0000     -0.00 LINEAR  3.9154E-03   -107.00  0.0000E+00      0.00
   76.00     16.00      1.41  -999.99     1.41      0.0000     -0.00 LINEAR  3.9984E-03   -107.05  0.0000E+00      0.00
   80.00     16.00      1.55  -999.99     1.55      0.0000     -0.00 LINEAR  4.0611E-03   -107.46  0.0000E+00      0.00
   84.00     16.00      1.63  -999.99     1.63      0.0000     -0.00 LINEAR  4.1031E-03   -108.23  0.0000E+00      0.00
   88.00     16.00      1.68  -999.99     1.68      0.0000     -0.00 LINEAR  4.1240E-03   -109.35  0.0000E+00      0.00
   92.00     16.00      1.68  -999.99     1.68      0.0000     -0.00 LINEAR  4.1237E-03   -110.81  0.0000E+00      0.00
   96.00     16.00      1.63  -999.99     1.63      0.0000     -0.00 LINEAR  4.1022E-03   -112.62  0.0000E+00      0.00
  100.00     16.00      1.54  -999.99     1.54      0.0000     -0.00 LINEAR  4.0597E-03   -114.75  0.0000E+00      0.00
  104.00     16.00      1.41  -999.99     1.41      0.0000     -0.00 LINEAR  3.9965E-03   -117.20  0.0000E+00      0.00
  108.00     16.00      1.22  -999.99     1.22      0.0000     -0.00 LINEAR  3.9130E-03   -119.97  0.0000E+00      0.00
  112.00     16.00      0.99  -999.99     0.99      0.0000     -0.00 LINEAR  3.8098E-03   -123.02  0.0000E+00      0.00
  116.00     16.00      0.71  -999.99     0.71      0.0000     -0.00 LINEAR  3.6877E-03   -126.35  0.0000E+00      0.00
  120.00     16.00      0.37  -999.99     0.37      0.0000     -0.00 LINEAR  3.5473E-03   -129.95  0.0000E+00      0.00
  124.00     16.00     -0.02  -999.99    -0.02      0.0000     -0.00 LINEAR  3.3897E-03   -133.79  0.0000E+00      0.00
  128.00     16.00     -0.48  -999.99    -0.48      0.0000     -0.00 LINEAR  3.2159E-03   -137.86  0.0000E+00      0.00
  132.00     16.00     -1.01  -999.99    -1.01      0.0000     -0.00 LINEAR  3.0269E-03   -142.13  0.0000E+00      0.00
  136.00     16.00     -1.61  -999.99    -1.61      0.0000     -0.00 LINEAR  2.8238E-03   -146.59  0.0000E+00      0.00
  140.00     16.00     -2.30  -999.99    -2.30      0.0000     -0.00 LINEAR  2.6078E-03   -151.22  0.0000E+00      0.00
  144.00     16.00     -3.10  -999.99    -3.10      0.0000     -0.00 LINEAR  2.3801E-03   -155.98  0.0000E+00      0.00
  148.00     16.00     -4.01  -999.99    -4.01      0.0000     -0.00 LINEAR  2.1418E-03   -160.87  0.0000E+00      0.00
  152.00     16.00     -5.08  -999.99    -5.08      0.0000     -0.00 LINEAR  1.8943E-03   -165.85  0.0000E+00      0.00
  156.00     16.00     -6.34  -999.99    -6.34      0.0000     -0.00 LINEAR  1.6386E-03   -170.90  0.0000E+00      0.00
  160.00     16.00     -7.86  -999.99    -7.86      0.0000     -0.00 LINEAR  1.3760E-03   -176.00  0.0000E+00      0.00
  164.00     16.00     -9.74  -999.99    -9.74      0.0000     -0.00 LINEAR  1.1076E-03    178.88  0.0000E+00      0.00
  168.00     16.00    -12.20  -999.99   -12.20      0.0000     -0.00 LINEAR  8.3470E-04    173.76  0.0000E+00      0.00
  172.00     16.00    -15.69  -999.99   -15.69      0.0000     -0.00 LINEAR  5.5836E-04    168.68  0.0000E+00      0.00
  176.00     16.00    -21.69  -999.99   -21.69      0.0000     -0.00 LINEAR  2.7975E-04    163.64  0.0000E+00      0.00
  180.00     16.00   -999.99  -999.99  -999.99      0.0000      0.00         4.0927E-14    -21.32  0.0000E+00      0.00
    0.00     20.00   -999.99  -999.99  -999.99      0.0000      0.00         0.0000E+00      0.00  0.0000E+00      0.00
    4.00     20.00    -21.68  -999.99   -21.68      0.0000     -0.00 LINEAR  2.8029E-04   -154.74  0.0000E+00      0.00
    8.00     20.00    -15.67  -999.99   -15.67      0.0000     -0.00 LINEAR  5.5944E-04   -150.11  0.0000E+00      0.00
   12.00     20.00    -12.18  -999.99   -12.18      0.0000     -0.00 LINEAR  8.3629E-04   -145.64  0.0000E+00      0.00
   16.00     20.00     -9.72  -999.99    -9.72      0.0000     -0.00 LINEAR  1.1097E-03   -141.33  0.0000E+00      0.00
   20.00     20.00     -7.84  -999.99    -7.84      0.0000     -0.00 LINEAR  1.3785E-03   -137.21  0.0000E+00      0.00
   24.00     20.00     -6.32  -999.99    -6.32      0.0000     -0.00 LINEAR  1.6415E-03   -133.30  0.0000E+00      0.00
   28.00     20.00     -5.06  -999.99    -5.06      0.0000     -0.00 LINEAR  1.8975E-03   -129.63  0.0000E+00      0.00
   32.00     20.00     -4.00  -999.99    -4.00      0.0000     -0.00 LINEAR  2.1453E-03   -126.20  0.0000E+00      0.00
   36.00     20.00     -3.08  -999.99    -3.08      0.0000     -0.00 LINEAR  2.3838E-03   -123.03  0.0000E+00      0.00
   40.00     20.00     -2.29  -999.99    -2.29      0.0000     -0.00 LINEAR  2.6117E-03   -120.14  0.0000E+00      0.00
   44.00     20.00     -1.60  -999.99    -1.60      0.0000     -0.00 LINEAR  2.8277E-03   -117.55  0.0000E+00      0.00
   48.00     20.00     -1.00  -999.99    -1.00      0.0000     -0.00 LINEAR  3.0308E-03   -115.26  0.0000E+00      0.00
   52.00     20.00     -0.47  -999.99    -0.47      0.0000     -0.00 LINEAR  3.2197E-03   -113.29  0.0000E+00      0.00
   56.00     20.00     -0.01  -999.99    -0.01      0.0000     -0.00 LINEAR  3.3934E-03   -111.65  0.0000E+00      0.00
   60.00     20.00      0.38  -999.99     0.38      0.0000     -0.00 LINEAR  3.5507E-03   -110.35  0.0000E+00      0.00
   64.00     20.00      0.71  -999.99     0.71      0.0000     -0.00 LINEAR  3.6908E-03   -109.39  0.0000E+00      0.00
   68.00     20.00      1.00  -999.99     1.00      0.0000     -0.00 LINEAR  3.8126E-03   -108.77  0.0000E+00      0.00
   72.00     20.00      1.23  -999.99     1.23      0.0000     -0.00 LINEAR  3.9154E-03   -108.50  0.0000E+00      0.00
   76.00     20.00      1.41  -999.99     1.41      0.0000     -0.00 LINEAR  3.9984E-03   -108.59  0.0000E+00      0.00
   80.00     20.00      1.55  -999.99     1.55      0.0000     -0.00 LINEAR  4.0611E-03   -109.02  0.0000E+00      0.00
   84.00     20.00      1.63  -999.99     1.63      0.0000     -0.00 LINEAR  4.1031E-03   -109.80  0.0000E+00      0.00
   88.00     20.00      1.68  -999.99     1.68      0.0000     -0.00 LINEAR  4.1240E-03   -110.93  0.0000E+00      0.00
   92.00     20.00      1.68  -999.99     1.68      0.0000     -0.00 LINEAR  4.1237E-03   -112.39  0.0000E+00      0.00
   96.00     20.00      1.63  -999.99     1.63      0.0000     -0.00 LINEAR  4.1022E-03   -114.19  0.0000E+00      0.00
  100.00     20.00      1.54  -999.99     1.54      0.0000     -0.00 LINEAR  4.0597E-03   -116.31  0.0000E+00      0.00
  104.00     20.00      1.41  -999.99     1.41      0.0000     -0.00 LINEAR  3.9965E-03   -118.74  0.0000E+00      0.00
  108.00     20.00      1.22  -999.99     1.22      0.0000     -0.00 LINEAR  3.9130E-03   -121.47  0.0000E+00      0.00
  112.00     20.00      0.99  -999.99     0.99      0.0000     -0.00 LINEAR  3.8098E-03   -124.48  0.0000E+00      0.00
  116.00     20.00      0.71  -999.99     0.71      0.0000     -0.00 LINEAR  3.6877E-03   -127.77  0.0000E+00      0.00
  120.00     20.00      0.37  -999.99     0.37      0.0000     -0.00 LINEAR  3.5473E-03   -131.32  0.0000E+00      0.00
  124.00     20.00     -0.02  -999.99    -0.02      0.0000     -0.00 LINEAR  3.3897E-03   -135.10  0.0000E+00      0.00
  128.00     20.00     -0.48  -999.99    -0.48      0.0000     -0.00 LINEAR  3.2159E-03   -139.10  0.0000E+00      0.00
  132.00     20.00     -1.01  -999.99    -1.01      0.0000     -0.00 LINEAR  3.0269E-03   -143.31  0.0000E+00      0.00
  136.00     20.00     -1.61  -999.99    -1.61      0.0000     -0.00 LINEAR  2.8238E-03   -147.69  0.0000E+00      0.00
  140.00     20.00     -2.30  -999.99    -2.30      0.0000     -0.00 LINEAR  2.6078E-03   -152.23  0.0000E+00      0.00
  144.00     20.00     -3.10  -999.99    -3.10      0.0000     -0.00 LINEAR  2.3801E-03   -156.91  0.0000E+00      0.00
  148.00     20.00     -4.01  -999.99    -4.01      0.0000     -0.00 LINEAR  2.1418E-03   -161.71  0.0000E+00      0.00
  152.00     20.00     -5.08  -999.99    -5.08      0.0000     -0.00 LINEAR  1.8943E-03   -166.59  0.0000E+00      0.00
  156.00     20.00     -6.34  -999.99    -6.34      0.0000     -0.00 LINEAR  1.6386E-03   -171.54  0.0000E+00      0.00
  160.00     20.00     -7.86  -999.99    -7.86      0.0000     -0.00 LINEAR  1.3760E-03   -176.54  0.0000E+00      0.00
  164.00     20.00     -9.74  -999.99    -9.74      0.0000     -0.00 LINEAR  1.1076E-03    178.45  0.0000E+00      0.00
  168.00     20.00    -12.20  -999.99   -12.20      0.0000     -0.00 LINEAR  8.3470E-04    173.44  0.0000E+00      0.00
  172.00     20.00    -15.69  -999.99   -15.69      0.0000     -0.00 LINEAR  5.5836E-04    168.46  0.0000E+00      0.00
  176.00     20.00    -21.69  -999.99   -21.69      0.0000     -0.00 LINEAR  2.7975E-04    163.53  0.0000E+00      0.00
  180.00     20.00   -999.99  -999.99  -999.99      0.0000      0.00         4.0927E-14    -21.32  0.0000E+00      0.00
    0.00     24.00   -999.99  -999.99  -999.99      0.0000      0.00         0.0000E+00      0.00  0.0000E+00      0.00
    4.00     24.00    -21.68  -999.99   -21.68      0.0000     -0.00 LINEAR  2.8029E-04   -154.87  0.0000E+00      0.00
    8.00     24.00    -15.67  -999.99   -15.67      0.0000     -0.00 LINEAR  5.5944E-04   -150.38  0.0000E+00      0.00
   12.00     24.00    -12.18  -999.99   -12.18      0.0000     -0.00 LINEAR  8.3629E-04   -146.03  0.0000E+00      0.00
   16.00     24.00     -9.72  -999.99    -9.72      0.0000     -0.00 LINEAR  1.1097E-03   -141.86  0.0000E+00      0.00
   20.00     24.00     -7.84  -999.99    -7.84      0.0000     -0.00 LINEAR  1.3785E-03   -137.87  0.0000E+00      0.00
   24.00     24.00     -6.32  -999.99    -6.32      0.0000     -0.00 LINEAR  1.6415E-03   -134.08  0.0000E+00      0.00
   28.00     24.00     -5.06  -999.99    -5.06      0.0000     -0.00 LINEAR  1.8975E-03   -130.53  0.0000E+00      0.00
   32.00     24.00     -4.00  -999.99    -4.00      0.0000     -0.00 LINEAR  2.1453E-03   -127.21  0.0000E+00      0.00
   36.00     24.00     -3.08  -999.99    -3.08      0.0000     -0.00 LINEAR  2.3838E-03   -124.15  0.0000E+00      0.00
   40.00     24.00     -2.29  -999.99    -2.29      0.0000     -0.00 LINEAR  2.6117E-03   -121.37  0.0000E+00      0.00
   44.00     24.00     -1.60  -999.99    -1.60      0.0000     -0.00 LINEAR  2.8277E-03   -118.88  0.0000E+00      0.00
   48.00     24.00     -1.00  -999.99    -1.00      0.0000     -0.00 LINEAR  3.0308E-03   -116.69  0.0000E+00      0.00
   52.00     24.00     -0.47  -999.99    -0.47      0.0000     -0.00 LINEAR  3.2197E-03   -114.80  0.0000E+00      0.00
   56.00     24.00     -0.01  -999.99    -0.01      0.0000     -0.00 LINEAR  3.3934E-03   -113.24  0.0000E+00      0.00
   60.00     24.00      0.38  -999.99     0.38      0.0000     -0.00 LINEAR  3.5507E-03   -112.01  0.0000E+00      0.00
   64.00     24.00      0.71  -999.99     0.71      0.0000     -0.00 LINEAR  3.6908E-03   -111.11  0.0000E+00      0.00
   68.00     24.00      1.00  -999.99     1.00      0.0000     -0.00 LINEAR  3.8126E-03   -110.54  0.0000E+00      0.00
   72.00     24.00      1.23  -999.99     1.23      0.0000     -0.00 LINEAR  3.9154E-03   -110.32  0.0000E+00      0.00
   76.00     24.00      1.41  -999.99     1.41      0.0000     -0.00 LINEAR  3.9984E-03   -110.44  0.0000E+00      0.00
   80.00     24.00      1.55  -999.99     1.55      0.0000     -0.00 LINEAR  4.0611E-03   -110.90  0.0000E+00      0.00
   84.00     24.00      1.63  -999.99     1.63      0.0000     -0.00 LINEAR  4.1031E-03   -111.70  0.0000E+00      0.00
   88.00     24.00      1.68  -999.99     1.68      0.0000     -0.00 LINEAR  4.1240E-03   -112.84  0.0000E+00      0.00
   92.00     24.00      1.68  -999.99     1.68      0.0000     -0.00 LINEAR  4.1237E-03   -114.30  0.0000E+00      0.00
   96.00     24.00      1.63  -999.99     1.63      0.0000     -0.00 LINEAR  4.1022E-03   -116.09  0.0000E+00      0.00
  100.00     24.00      1.54  -999.99     1.54      0.0000     -0.00 LINEAR  4.0597E-03   -118.19  0.0000E+00      0.00
  104.00     24.00      1.41  -999.99     1.41      0.0000     -0.00 LINEAR  3.9965E-03   -120.59  0.0000E+00      0.00
  108.00     24.00      1.22  -999.99     1.22      0.0000     -0.00 LINEAR  3.9130E-03   -123.29  0.0000E+00      0.00
  112.00     24.00      0.99  -999.99     0.99      0.0000     -0.00 LINEAR  3.8098E-03   -126.26  0.0000E+00      0.00
  116.00     24.00      0.71  -999.99     0.71      0.0000     -0.00 LINEAR  3.6877E-03   -129.49  0.0000E+00      0.00
  120.00     24.00      0.37  -999.99     0.37      0.0000     -0.00 LINEAR  3.5473E-03   -132.97  0.0000E+00      0.00
  124.00     24.00     -0.02  -999.99    -0.02      0.0000     -0.00 LINEAR  3.3897E-03   -136.69  0.0000E+00      0.00
  128.00     24.00     -0.48  -999.99    -0.48      0.0000     -0.00 LINEAR  3.2159E-03   -140.61  0.0000E+00      0.00
  132.00     24.00     -1.01  -999.99    -1.01      0.0000     -0.00 LINEAR  3.0269E-03   -144.73  0.0000E+00      0.00
  136.00     24.00     -1.61  -999.99    -1.61      0.0000     -0.00 LINEAR  2.8238E-03   -149.02  0.0000E+00      0.00
  140.00     24.00     -2.30  -999.99    -2.30      0.0000     -0.00 LINEAR  2.6078E-03   -153.46  0.0000E+00      0.00
  144.00     24.00     -3.10  -999.99    -3.10      0.0000     -0.00 LINEAR  2.3801E-03   -158.04  0.0000E+00      0.00
  148.00     24.00     -4.01  -999.99    -4.01      0.0000     -0.00 LINEAR  2.1418E-03   -162.72  0.0000E+00      0.00
  152.00     24.00     -5.08  -999.99    -5.08      0.0000     -0.00 LINEAR  1.8943E-03   -167.49  0.0000E+00      0.00
  156.00     24.00     -6.34  -999.99    -6.34      0.0000     -0.00 LINEAR  1.6386E-03   -172.32  0.0000E+00      0.00
  160.00     24.00     -7.86  -999.99    -7.86      0.0000     -0.00 LINEAR  1.3760E-03   -177.19  0.0000E+00      0.00
  164.00     24.00     -9.74  -999.99    -9.74      0.0000     -0.00 LINEAR  1.1076E-03    177.92  0.0000E+00      0.00
  168.00     24.00    -12.20  -999.99   -12.20      0.0000     -0.00 LINEAR  8.3470E-04    173.04  0.0000E+00      0.00
  172.00     24.00    -15.69  -999.99   -15.69      0.0000     -0.00 LINEAR  5.5836E-04    168.19  0.0000E+00      0.00
  176.00     24.00    -21.69  -999.99   -21.69      0.0000     -0.00 LINEAR  2.7975E-04    163.40  0.0000E+00      0.00
  180.00     24.00   -999.99  -999.99  -999.99      0.0000      0.00         4.0927E-14    -21.32  0.0000E+00      0.00
    0.00     28.00   -999.99  -999.99  -999.99      0.0000      0.00         0.0000E+00      0.00  0.0000E+00      0.00
    4.00     28.00    -21.68  -999.99   -21.68      0.0000     -0.00 LINEAR  2.8029E-04   -155.03  0.0000E+00      0.00
    8.00     28.00    -15.67  -999.99   -15.67      0.0000     -0.00 LINEAR  5.5944E-04   -150.69  0.0000E+00      0.00
   12.00     28.00    -12.18  -999.99   -12.18      0.0000     -0.00 LINEAR  8.3629E-04   -146.50  0.0000E+00      0.00
   16.00     28.00     -9.72  -999.99    -9.72      0.0000     -0.00 LINEAR  1.1097E-03   -142.47  0.0000E+00      0.00
   20.00     28.00     -7.84  -999.99    -7.84      0.0000     -0.00 LINEAR  1.3785E-03   -138.63  0.0000E+00      0.00
   24.00     28.00     -6.32  -999.99    -6.32      0.0000     -0.00 LINEAR  1.6415E-03   -134.99  0.0000E+00      0.00
   28.00     28.00     -5.06  -999.99    -5.06      0.0000     -0.00 LINEAR  1.8975E-03   -131.58  0.0000E+00      0.00
   32.00     28.00     -4.00  -999.99    -4.00      0.0000     -0.00 LINEAR  2.1453E-03   -128.40  0.0000E+00      0.00
   36.00     28.00     -3.08  -999.99    -3.08      0.0000     -0.00 LINEAR  2.3838E-03   -125.47  0.0000E+00      0.00
   40.00     28.00     -2.29  -999.99    -2.29      0.0000     -0.00 LINEAR  2.6117E-03   -122.81  0.0000E+00      0.00
   44.00     28.00     -1.60  -999.99    -1.60      0.0000     -0.00 LINEAR  2.8277E-03   -120.43  0.0000E+00      0.00
   48.00     28.00     -1.00  -999.99    -1.00      0.0000     -0.00 LINEAR  3.0308E-03   -118.35  0.0000E+00      0.00
   52.00     28.00     -0.47  -999.99    -0.47      0.0000     -0.00 LINEAR  3.2197E-03   -116.57  0.0000E+00      0.00
   56.00     28.00     -0.01  -999.99    -0.01      0.0000     -0.00 LINEAR  3.3934E-03   -115.10  0.0000E+00      0.00
   60.00     28.00      0.38  -999.99     0.38      0.0000     -0.00 LINEAR  3.5507E-03   -113.95  0.0000E+00      0.00
   64.00     28.00      0.71  -999.99     0.71      0.0000     -0.00 LINEAR  3.6908E-03   -113.12  0.0000E+00      0.00
   68.00     28.00      1.00  -999.99     1.00      0.0000     -0.00 LINEAR  3.8126E-03   -112.62  0.0000E+00      0.00
   72.00     28.00      1.23  -999.99     1.23      0.0000     -0.00 LINEAR  3.9154E-03   -112.45  0.0000E+00      0.00
   76.00     28.00      1.41  -999.99     1.41      0.0000     -0.00 LINEAR  3.9984E-03   -112.62  0.0000E+00      0.00
   80.00     28.00      1.55  -999.99     1.55      0.0000     -0.00 LINEAR  4.0611E-03   -113.11  0.0000E+00      0.00
   84.00     28.00      1.63  -999.99     1.63      0.0000     -0.00 LINEAR  4.1031E-03   -113.93  0.0000E+00      0.00
   88.00     28.00      1.68  -999.99     1.68      0.0000     -0.00 LINEAR  4.1240E-03   -115.08  0.0000E+00      0.00
   92.00     28.00      1.68  -999.99     1.68      0.0000     -0.00 LINEAR  4.1237E-03   -116.54  0.0000E+00      0.00
   96.00     28.00      1.63  -999.99     1.63      0.0000     -0.00 LINEAR  4.1022E-03   -118.32  0.0000E+00      0.00
  100.00     28.00      1.54  -999.99     1.54      0.0000     -0.00 LINEAR  4.0597E-03   -120.40  0.0000E+00      0.00
  104.00     28.00      1.41  -999.99     1.41      0.0000     -0.00 LINEAR  3.9965E-03   -122.77  0.0000E+00      0.00
  108.00     28.00      1.22  -999.99     1.22      0.0000     -0.00 LINEAR  3.9130E-03   -125.42  0.0000E+00      0.00
  112.00     28.00      0.99  -999.99     0.99      0.0000     -0.00 LINEAR  3.8098E-03   -128.34  0.0000E+00      0.00
  116.00     28.00      0.71  -999.99     0.71      0.0000     -0.00 LINEAR  3.6877E-03   -131.51  0.0000E+00      0.00
  120.00     28.00      0.37  -999.99     0.37      0.0000     -0.00 LINEAR  3.5473E-03   -134.91  0.0000E+00      0.00
  124.00     28.00     -0.02  -999.99    -0.02      0.0000     -0.00 LINEAR  3.3897E-03   -138.54  0.0000E+00      0.00
  128.00     28.00     -0.48  -999.99    -0.48      0.0000     -0.00 LINEAR  3.2159E-03   -142.38  0.0000E+00      0.00
  132.00     28.00     -1.01  -999.99    -1.01      0.0000     -0.00 LINEAR  3.0269E-03   -146.39  0.0000E+00      0.00
  136.00     28.00     -1.61  -999.99    -1.61      0.0000     -0.00 LINEAR  2.8238E-03   -150.58  0.0000E+00      0.00
  140.00     28.00     -2.30  -999.99    -2.30      0.0000     -0.00 LINEAR  2.6078E-03   -154.90  0.0000E+00      0.00
  144.00     28.00     -3.10  -999.99    -3.10      0.0000     -0.00 LINEAR  2.3801E-03   -159.35  0.0000E+00      0.00
  148.00     28.00     -4.01  -999.99    -4.01      0.0000     -0.00 LINEAR  2.1418E-03   -163.91  0.0000E+00      0.00
  152.00     28.00     -5.08  -999.99    -5.08      0.0000     -0.00 LINEAR  1.8943E-03   -168.54  0.0000E+00      0.00
  156.00     28.00     -6.34  -999.99    -6.34      0.0000     -0.00 LINEAR  1.6386E-03   -173.23  0.0000E+00      0.00
  160.00     28.00     -7.86  -999.99    -7.86      0.0000     -0.00 LINEAR  1.3760E-03   -177.96  0.0000E+00      0.00
  164.00     28.00     -9.74  -999.99    -9.74      0.0000     -0.00 LINEAR  1.1076E-03    177.30  0.0000E+00      0.00
  168.00     28.00    -12.20  -999.99   -12.20      0.0000     -0.00 LINEAR  8.3470E-04    172.57  0.0000E+00      0.00
  172.00     28.00    -15.69  -999.99   -15.69      0.0000     -0.00 LINEAR  5.5836E-04    167.88  0.0000E+00      0.00
  176.00     28.00    -21.69  -999.99   -21.69      0.0000     -0.00 LINEAR  2.7975E-04    163.24  0.0000E+00      0.00
  180.00     28.00   -999.99  -999.99  -999.99      0.0000      0.00         4.0927E-14    -21.32  0.0000E+00      0.00
    0.00     32.00   -999.99  -999.99  -999.99      0.0000      0.00         0.0000E+00      0.00  0.0000E+00      0.00
    4.00     32.00    -21.68  -999.99   -21.68      0.0000     -0.00 LINEAR  2.8029E-04   -155.20  0.0000E+00      0.00
    8.00     32.00    -15.67  -999.99   -15.67      0.0000     -0.00 LINEAR  5.5944E-04   -151.05  0.0000E+00      0.00
   12.00     32.00    -12.18  -999.99   -12.18      0.0000     -0.00 LINEAR  8.3629E-04   -147.03  0.0000E+00      0.00
   16.00     32.00     -9.72  -999.99    -9.72      0.0000     -0.00 LINEAR  1.1097E-03   -143.18  0.0000E+00      0.00
   20.00     32.00     -7.84  -999.99    -7.84      0.0000     -0.00 LINEAR  1.3785E-03   -139.51  0.0000E+00      0.00
   24.00     32.00     -6.32  -999.99    -6.32      0.0000     -0.00 LINEAR  1.6415E-03   -136.03  0.0000E+00      0.00
   28.00     32.00     -5.06  -999.99    -5.06      0.0000     -0.00 LINEAR  1.8975E-03   -132.78  0.0000E+00      0.00
   32.00     32.00     -4.00  -999.99    -4.00      0.0000     -0.00 LINEAR  2.1453E-03   -129.75  0.0000E+00      0.00
   36.00     32.00     -3.08  -999.99    -3.08      0.0000     -0.00 LINEAR  2.3838E-03   -126.97  0.0000E+00      0.00
   40.00     32.00     -2.29  -999.99    -2.29      0.0000     -0.00 LINEAR  2.6117E-03   -124.45  0.0000E+00      0.00
   44.00     32.00     -1.60  -999.99    -1.60      0.0000     -0.00 LINEAR  2.8277E-03   -122.21  0.0000E+00      0.00
   48.00     32.00     -1.00  -999.99    -1.00      0.0000     -0.00 LINEAR  3.0308E-03   -120.25  0.0000E+00      0.00
   52.00     32.00     -0.47  -999.99    -0.47      0.0000     -0.00 LINEAR  3.2197E-03   -118.58  0.0000E+00      0.00
   56.00     32.00     -0.01  -999.99    -0.01      0.0000     -0.00 LINEAR  3.3934E-03   -117.22  0.0000E+00      0.00
   60.00     32.00      0.38  -999.99     0.38      0.0000     -0.00 LINEAR  3.5507E-03   -116.16  0.0000E+00      0.00
   64.00     32.00      0.71  -999.99     0.71      0.0000     -0.00 LINEAR  3.6908E-03   -115.41  0.0000E+00      0.00
   68.00     32.00      1.00  -999.99     1.00      0.0000     -0.00 LINEAR  3.8126E-03   -114.99  0.0000E+00      0.00
   72.00     32.00      1.23  -999.99     1.23      0.0000     -0.00 LINEAR  3.9154E-03   -114.88  0.0000E+00      0.00
   76.00     32.00      1.41  -999.99     1.41      0.0000     -0.00 LINEAR  3.9984E-03   -115.09  0.0000E+00      0.00
   80.00     32.00      1.55  -999.99     1.55      0.0000     -0.00 LINEAR  4.0611E-03   -115.63  0.0000E+00      0.00
   84.00     32.00      1.63  -999.99     1.63      0.0000     -0.00 LINEAR  4.1031E-03   -116.47  0.0000E+00      0.00
   88.00     32.00      1.68  -999.99     1.68      0.0000     -0.00 LINEAR  4.1240E-03   -117.63  0.0000E+00      0.00
   92.00     32.00      1.68  -999.99     1.68      0.0000     -0.00 LINEAR  4.1237E-03   -119.10  0.0000E+00      0.00
   96.00     32.00      1.63  -999.99     1.63      0.0000     -0.00 LINEAR  4.1022E-03   -120.86  0.0000E+00      0.00
  100.00     32.00      1.54  -999.99     1.54      0.0000     -0.00 LINEAR  4.0597E-03   -122.91  0.0000E+00      0.00
  104.00     32.00      1.41  -999.99     1.41      0.0000     -0.00 LINEAR  3.9965E-03   -125.25  0.0000E+00      0.00
  108.00     32.00      1.22  -999.99     1.22      0.0000     -0.00 LINEAR  3.9130E-03   -127.85  0.0000E+00      0.00
  112.00     32.00      0.99  -999.99     0.99      0.0000     -0.00 LINEAR  3.8098E-03   -130.70  0.0000E+00      0.00
  116.00     32.00      0.71  -999.99     0.71      0.0000     -0.00 LINEAR  3.6877E-03   -133.80  0.0000E+00      0.00
  120.00     32.00      0.37  -999.99     0.37      0.0000     -0.00 LINEAR  3.5473E-03   -137.13  0.0000E+00      0.00
  124.00     32.00     -0.02  -999.99    -0.02      0.0000     -0.00 LINEAR  3.3897E-03   -140.66  0.0000E+00      0.00
  128.00     32.00     -0.48  -999.99    -0.48      0.0000     -0.00 LINEAR  3.2159E-03   -144.39  0.0000E+00      0.00
  132.00     32.00     -1.01  -999.99    -1.01      0.0000     -0.00 LINEAR  3.0269E-03   -148.29  0.0000E+00      0.00
  136.00     32.00     -1.61  -999.99    -1.61      0.0000     -0.00 LINEAR  2.8238E-03   -152.35  0.0000E+00      0.00
  140.00     32.00     -2.30  -999.99    -2.30      0.0000     -0.00 LINEAR  2.6078E-03   -156.54  0.0000E+00      0.00
  144.00     32.00     -3.10  -999.99    -3.10      0.0000     -0.00 LINEAR  2.3801E-03   -160.86  0.0000E+00      0.00
  148.00     32.00     -4.01  -999.99    -4.01      0.0000     -0.00 LINEAR  2.1418E-03   -165.26  0.0000E+00      0.00
  152.00     32.00     -5.08  -999.99    -5.08      0.0000     -0.00 LINEAR  1.8943E-03   -169.74  0.0000E+00      0.00
  156.00     32.00     -6.34  -999.99    -6.34      0.0000     -0.00 LINEAR  1.6386E-03   -174.27  0.0000E+00      0.00
  160.00     32.00     -7.86  -999.99    -7.86      0.0000     -0.00 LINEAR  1.3760E-03   -178.83  0.0000E+00      0.00
  164.00     32.00     -9.74  -999.99    -9.74      0.0000     -0.00 LINEAR  1.1076E-03    176.60  0.0000E+00      0.00
  168.00     32.00    -12.20  -999.99   -12.20      0.0000     -0.00 LINEAR  8.3470E-04    172.04  0.0000E+00      0.00
  172.00     32.00    -15.69  -999.99   -15.69      0.0000     -0.00 LINEAR  5.5836E-04    167.52  0.0000E+00      0.00
  176.00     32.00    -21.69  -999.99   -21.69      0.0000     -0.00 LINEAR  2.7975E-04    163.06  0.0000E+00      0.00
  180.00     32.00   -999.99  -999.99  -999.99      0.0000      0.00         4.0927E-14    -21.32  0.0000E+00      0.00
    0.00     36.00   -999.99  -999.99  -999.99      0.0000      0.00         0.0000E+00      0.00  0.0000E+00      0.00
    4.00     36.00    -21.68  -999.99   -21.68      0.0000     -0.00 LINEAR  2.8029E-04   -155.40  0.0000E+00      0.00
    8.00     36.00    -15.67  -999.99   -15.67      0.0000     -0.00 LINEAR  5.5944E-04   -151.44  0.0000E+00      0.00
   12.00     36.00    -12.18  -999.99   -12.18      0.0000     -0.00 LINEAR  8.3629E-04   -147.63  0.0000E+00      0.00
   16.00     36.00     -9.72  -999.99    -9.72      0.0000     -0.00 LINEAR  1.1097E-03   -143.97  0.0000E+00      0.00
   20.00     36.00     -7.84  -999.99    -7.84      0.0000     -0.00 LINEAR  1.3785E-03   -140.48  0.0000E+00      0.00
   24.00     36.00     -6.32  -999.99    -6.32      0.0000     -0.00 LINEAR  1.6415E-03   -137.20  0.0000E+00      0.00
   28.00     36.00     -5.06  -999.99    -5.06      0.0000     -0.00 LINEAR  1.8975E-03   -134.12  0.0000E+00      0.00
   32.00     36.00     -4.00  -999.99    -4.00      0.0000     -0.00 LINEAR  2.1453E-03   -131.26  0.0000E+00      0.00
   36.00     36.00     -3.08  -999.99    -3.08      0.0000     -0.00 LINEAR  2.3838E-03   -128.65  0.0000E+00      0.00
   40.00     36.00     -2.29  -999.99    -2.29      0.0000     -0.00 LINEAR  2.6117E-03   -126.29  0.0000E+00      0.00
   44.00     36.00     -1.60  -999.99    -1.60      0.0000     -0.00 LINEAR  2.8277E-03   -124.19  0.0000E+00      0.00
   48.00     36.00     -1.00  -999.99    -1.00      0.0000     -0.00 LINEAR  3.0308E-03   -122.37  0.0000E+00      0.00
   52.00     36.00     -0.47  -999.99    -0.47      0.0000     -0.00 LINEAR  3.2197E-03   -120.83  0.0000E+00      0.00
   56.00     36.00     -0.01  -999.99    -0.01      0.0000     -0.00 LINEAR  3.3934E-03   -119.58  0.0000E+00      0.00
   60.00     36.00      0.38  -999.99     0.38      0.0000     -0.00 LINEAR  3.5507E-03   -118.63  0.0000E+00      0.00
   64.00     36.00      0.71  -999.99     0.71      0.0000     -0.00 LINEAR  3.6908E-03   -117.98  0.0000E+00      0.00
   68.00     36.00      1.00  -999.99     1.00      0.0000     -0.00 LINEAR  3.8126E-03   -117.64  0.0000E+00      0.00
   72.00     36.00      1.23  -999.99     1.23      0.0000     -0.00 LINEAR  3.9154E-03   -117.60  0.0000E+00      0.00
   76.00     36.00      1.41  -999.99     1.41      0.0000     -0.00 LINEAR  3.9984E-03   -117.87  0.0000E+00      0.00
   80.00     36.00      1.55  -999.99     1.55      0.0000     -0.00 LINEAR  4.0611E-03   -118.44  0.0000E+00      0.00
   84.00     36.00      1.63  -999.99     1.63      0.0000     -0.00 LINEAR  4.1031E-03   -119.31  0.0000E+00      0.00
   88.00     36.00      1.68  -999.99     1.68      0.0000     -0.00 LINEAR  4.1240E-03   -120.49  0.0000E+00      0.00
   92.00     36.00      1.68  -999.99     1.68      0.0000     -0.00 LINEAR  4.1237E-03   -121.95  0.0000E+00      0.00
   96.00     36.00      1.63  -999.99     1.63      0.0000     -0.00 LINEAR  4.1022E-03   -123.70  0.0000E+00      0.00
  100.00     36.00      1.54  -999.99     1.54      0.0000     -0.00 LINEAR  4.0597E-03   -125.73  0.0000E+00      0.00
  104.00     36.00      1.41  -999.99     1.41      0.0000     -0.00 LINEAR  3.9965E-03   -128.02  0.0000E+00      0.00
  108.00     36.00      1.22  -999.99     1.22      0.0000     -0.00 LINEAR  3.9130E-03   -130.56  0.0000E+00      0.00
  112.00     36.00      0.99  -999.99     0.99      0.0000     -0.00 LINEAR  3.8098E-03   -133.35  0.0000E+00      0.00
  116.00     36.00      0.71  -999.99     0.71      0.0000     -0.00 LINEAR  3.6877E-03   -136.37  0.0000E+00      0.00
  120.00     36.00      0.37  -999.99     0.37      0.0000     -0.00 LINEAR  3.5473E-03   -139.60  0.0000E+00      0.00
  124.00     36.00     -0.02  -999.99    -0.02      0.0000     -0.00 LINEAR  3.3897E-03   -143.03  0.0000E+00      0.00
  128.00     36.00     -0.48  -999.99    -0.48      0.0000     -0.00 LINEAR  3.2159E-03   -146.64  0.0000E+00      0.00
  132.00     36.00     -1.01  -999.99    -1.01      0.0000     -0.00 LINEAR  3.0269E-03   -150.41  0.0000E+00      0.00
  136.00     36.00     -1.61  -999.99    -1.61      0.0000     -0.00 LINEAR  2.8238E-03   -154.33  0.0000E+00      0.00
  140.00     36.00     -2.30  -999.99    -2.30      0.0000     -0.00 LINEAR  2.6078E-03   -158.38  0.0000E+00      0.00
  144.00     36.00     -3.10  -999.99    -3.10      0.0000     -0.00 LINEAR  2.3801E-03   -162.53  0.0000E+00      0.00
  148.00     36.00     -4.01  -999.99    -4.01      0.0000     -0.00 LINEAR  2.1418E-03   -166.78  0.0000E+00      0.00
  152.00     36.00     -5.08  -999.99    -5.08      0.0000     -0.00 LINEAR  1.8943E-03   -171.08  0.0000E+00      0.00
  156.00     36.00     -6.34  -999.99    -6.34      0.0000     -0.00 LINEAR  1.6386E-03   -175.43  0.0000E+00      0.00
  160.00     36.00     -7.86  -999.99    -7.86      0.0000     -0.00 LINEAR  1.3760E-03   -179.81  0.0000E+00      0.00
  164.00     36.00     -9.74  -999.99    -9.74      0.0000     -0.00 LINEAR  1.1076E-03    175.81  0.0000E+00      0.00
  168.00     36.00    -12.20  -999.99   -12.20      0.0000     -0.00 LINEAR  8.3470E-04    171.45  0.0000E+00      0.00
  172.00     36.00    -15.69  -999.99   -15.69      0.0000     -0.00 LINEAR  5.5836E-04    167.12  0.0000E+00      0.00
  176.00     36.00    -21.69  -999.99   -21.69      0.0000     -0.00 LINEAR  2.7975E-04    162.86  0.0000E+00      0.00
  180.00     36.00   -999.99  -999.99  -999.99      0.0000      0.00         4.0927E-14    -21.32  0.0000E+00      0.00
    0.00     40.00   -999.99  -999.99  -999.99      0.0000      0.00         0.0000E+00      0.00  0.0000E+00      0.00
    4.00     40.00    -21.68  -999.99   -21.68      0.0000     -0.00 LINEAR  2.8029E-04   -155.62  0.0000E+00      0.00
    8.00     40.00    -15.67  -999.99   -15.67      0.0000     -0.00 LINEAR  5.5944E-04   -151.88  0.0000E+00      0.00
   12.00     40.00    -12.18  -999.99   -12.18      0.0000     -0.00 LINEAR  8.3629E-04   -148.28  0.0000E+00      0.00
   16.00     40.00     -9.72  -999.99    -9.72      0.0000     -0.00 LINEAR  1.1097E-03   -144.83  0.0000E+00      0.00
   20.00     40.00     -7.84  -999.99    -7.84      0.0000     -0.00 LINEAR  1.3785E-03   -141.56  0.0000E+00      0.00
   24.00     40.00     -6.32  -999.99    -6.32      0.0000     -0.00 LINEAR  1.6415E-03   -138.47  0.0000E+00      0.00
   28.00     40.00     -5.06  -999.99    -5.06      0.0000     -0.00 LINEAR  1.8975E-03   -135.59  0.0000E+00      0.00
   32.00     40.00     -4.00  -999.99    -4.00      0.0000     -0.00 LINEAR  2.1453E-03   -132.93  0.0000E+00      0.00
   36.00     40.00     -3.08  -999.99    -3.08      0.0000     -0.00 LINEAR  2.3838E-03   -130.50  0.0000E+00      0.00
   40.00     40.00     -2.29  -999.99    -2.29      0.0000     -0.00 LINEAR  2.6117E-03   -128.31  0.0000E+00      0.00
   44.00     40.00     -1.60  -999.99    -1.60      0.0000     -0.00 LINEAR  2.8277E-03   -126.38  0.0000E+00      0.00
   48.00     40.00     -1.00  -999.99    -1.00      0.0000     -0.00 LINEAR  3.0308E-03   -124.71  0.0000E+00      0.00
   52.00     40.00     -0.47  -999.99    -0.47      0.0000     -0.00 LINEAR  3.2197E-03   -123.31  0.0000E+00      0.00
   56.00     40.00     -0.01  -999.99    -0.01      0.0000     -0.00 LINEAR  3.3934E-03   -122.19  0.0000E+00      0.00
   60.00     40.00      0.38  -999.99     0.38      0.0000     -0.00 LINEAR  3.5507E-03   -121.36  0.0000E+00      0.00
   64.00     40.00      0.71  -999.99     0.71      0.0000     -0.00 LINEAR  3.6908E-03   -120.81  0.0000E+00      0.00
   68.00     40.00      1.00  -999.99     1.00      0.0000     -0.00 LINEAR  3.8126E-03   -120.55  0.0000E+00      0.00
   72.00     40.00      1.23  -999.99     1.23      0.0000     -0.00 LINEAR  3.9154E-03   -120.59  0.0000E+00      0.00
   76.00     40.00      1.41  -999.99     1.41      0.0000     -0.00 LINEAR  3.9984E-03   -120.92  0.0000E+00      0.00
   80.00     40.00      1.55  -999.99     1.55      0.0000     -0.00 LINEAR  4.0611E-03   -121.54  0.0000E+00      0.00
   84.00     40.00      1.63  -999.99     1.63      0.0000     -0.00 LINEAR  4.1031E-03   -122.44  0.0000E+00      0.00
   88.00     40.00      1.68  -999.99     1.68      0.0000     -0.00 LINEAR  4.1240E-03   -123.63  0.0000E+00      0.00
   92.00     40.00      1.68  -999.99     1.68      0.0000     -0.00 LINEAR  4.1237E-03   -125.10  0.0000E+00      0.00
   96.00     40.00      1.63  -999.99     1.63      0.0000     -0.00 LINEAR  4.1022E-03   -126.83  0.0000E+00      0.00
  100.00     40.00      1.54  -999.99     1.54      0.0000     -0.00 LINEAR  4.0597E-03   -128.82  0.0000E+00      0.00
  104.00     40.00      1.41  -999.99     1.41      0.0000     -0.00 LINEAR  3.9965E-03   -131.07  0.0000E+00      0.00
  108.00     40.00      1.22  -999.99     1.22      0.0000     -0.00 LINEAR  3.9130E-03   -133.56  0.0000E+00      0.00
  112.00     40.00      0.99  -999.99     0.99      0.0000     -0.00 LINEAR  3.8098E-03   -136.27  0.0000E+00      0.00
  116.00     40.00      0.71  -999.99     0.71      0.0000     -0.00 LINEAR  3.6877E-03   -139.20  0.0000E+00      0.00
  120.00     40.00      0.37  -999.99     0.37      0.0000     -0.00 LINEAR  3.5473E-03   -142.33  0.0000E+00      0.00
  124.00     40.00     -0.02  -999.99    -0.02      0.0000     -0.00 LINEAR  3.3897E-03   -145.64  0.0000E+00      0.00
  128.00     40.00     -0.48  -999.99    -0.48      0.0000     -0.00 LINEAR  3.2159E-03   -149.12  0.0000E+00      0.00
  132.00     40.00     -1.01  -999.99    -1.01      0.0000     -0.00 LINEAR  3.0269E-03   -152.75  0.0000E+00      0.00
  136.00     40.00     -1.61  -999.99    -1.61      0.0000     -0.00 LINEAR  2.8238E-03   -156.52  0.0000E+00      0.00
  140.00     40.00     -2.30  -999.99    -2.30      0.0000     -0.00 LINEAR  2.6078E-03   -160.40  0.0000E+00      0.00
  144.00     40.00     -3.10  -999.99    -3.10      0.0000     -0.00 LINEAR  2.3801E-03   -164.38  0.0000E+00      0.00
  148.00     40.00     -4.01  -999.99    -4.01      0.0000     -0.00 LINEAR  2.1418E-03   -168.44  0.0000E+00      0.00
  152.00     40.00     -5.08  -999.99    -5.08      0.0000     -0.00 LINEAR  1.8943E-03   -172.56  0.0000E+00      0.00
  156.00     40.00     -6.34  -999.99    -6.34      0.0000     -0.00 LINEAR  1.6386E-03   -176.71  0.0000E+00      0.00
  160.00     40.00     -7.86  -999.99    -7.86      0.0000     -0.00 LINEAR  1.3760E-03    179.11  0.0000E+00      0.00
  164.00     40.00     -9.74  -999.99    -9.74      0.0000     -0.00 LINEAR  1.1076E-03    174.94  0.0000E+00      0.00
  168.00     40.00    -12.20  -999.99   -12.20      0.0000     -0.00 LINEAR  8.3470E-04    170.79  0.0000E+00      0.00
  172.00     40.00    -15.69  -999.99   -15.69      0.0000     -0.00 LINEAR  5.5836E-04    166.69  0.0000E+00      0.00
  176.00     40.00    -21.69  -999.99   -21.69      0.0000     -0.00 LINEAR  2.7975E-04    162.64  0.0000E+00      0.00
  180.00     40.00   -999.99  -999.99  -999.99      0.0000      0.00         4.0927E-14    -21.32  0.0000E+00      0.00
    0.00     44.00   -999.99  -999.99  -999.99      0.0000      0.00         0.0000E+00      0.00  0.0000E+00      0.00
    4.00     44.00    -21.68  -999.99   -21.68      0.0000     -0.00 LINEAR  2.8029E-04   -155.86  0.0000E+00      0.00
    8.00     44.00    -15.67  -999.99   -15.67      0.0000     -0.00 LINEAR  5.5944E-04   -152.36  0.0000E+00      0.00
   12.00     44.00    -12.18  -999.99   -12.18      0.0000     -0.00 LINEAR  8.3629E-04   -148.99  0.0000E+00      0.00
   16.00     44.00     -9.72  -999.99    -9.72      0.0000     -0.00 LINEAR  1.1097E-03   -145.78  0.0000E+00      0.00
   20.00     44.00     -7.84  -999.99    -7.84      0.0000     -0.00 LINEAR  1.3785E-03   -142.73  0.0000E+00      0.00
   24.00     44.00     -6.32  -999.99    -6.32      0.0000     -0.00 LINEAR  1.6415E-03   -139.87  0.0000E+00      0.00
   28.00     44.00     -5.06  -999.99    -5.06      0.0000     -0.00 LINEAR  1.8975E-03   -137.20  0.0000E+00      0.00
   32.00     44.00     -4.00  -999.99    -4.00      0.0000     -0.00 LINEAR  2.1453E-03   -134.74  0.0000E+00      0.00
   36.00     44.00     -3.08  -999.99    -3.08      0.0000     -0.00 LINEAR  2.3838E-03   -132.51  0.0000E+00      0.00
   40.00     44.00     -2.29  -999.99    -2.29      0.0000     -0.00 LINEAR  2.6117E-03   -130.51  0.0000E+00      0.00
   44.00     44.00     -1.60  -999.99    -1.60      0.0000     -0.00 LINEAR  2.8277E-03   -128.75  0.0000E+00      0.00
   48.00     44.00     -1.00  -999.99    -1.00      0.0000     -0.00 LINEAR  3.0308E-03   -127.25  0.0000E+00      0.00
   52.00     44.00     -0.47  -999.99    -0.47      0.0000     -0.00 LINEAR  3.2197E-03   -126.01  0.0000E+00      0.00
   56.00     44.00     -0.01  -999.99    -0.01      0.0000     -0.00 LINEAR  3.3934E-03   -125.03  0.0000E+00      0.00
   60.00     44.00      0.38  -999.99     0.38      0.0000     -0.00 LINEAR  3.5507E-03   -124.32  0.0000E+00      0.00
   64.00     44.00      0.71  -999.99     0.71      0.0000     -0.00 LINEAR  3.6908E-03   -123.88  0.0000E+00      0.00
   68.00     44.00      1.00  -999.99     1.00      0.0000     -0.00 LINEAR  3.8126E-03   -123.72  0.0000E+00      0.00
   72.00     44.00      1.23  -999.99     1.23      0.0000     -0.00 LINEAR  3.9154E-03   -123.84  0.0000E+00      0.00
   76.00     44.00      1.41  -999.99     1.41      0.0000     -0.00 LINEAR  3.9984E-03   -124.24  0.0000E+00      0.00
   80.00     44.00      1.55  -999.99     1.55      0.0000     -0.00 LINEAR  4.0611E-03   -124.90  0.0000E+00      0.00
   84.00     44.00      1.63  -999.99     1.63      0.0000     -0.00 LINEAR  4.1031E-03   -125.84  0.0000E+00      0.00
   88.00     44.00      1.68  -999.99     1.68      0.0000     -0.00 LINEAR  4.1240E-03   -127.05  0.0000E+00      0.00
   92.00     44.00      1.68  -999.99     1.68      0.0000     -0.00 LINEAR  4.1237E-03   -128.51  0.0000E+00      0.00
   96.00     44.00      1.63  -999.99     1.63      0.0000     -0.00 LINEAR  4.1022E-03   -130.23  0.0000E+00      0.00
  100.00     44.00      1.54  -999.99     1.54      0.0000     -0.00 LINEAR  4.0597E-03   -132.19  0.0000E+00      0.00
  104.00     44.00      1.41  -999.99     1.41      0.0000     -0.00 LINEAR  3.9965E-03   -134.39  0.0000E+00      0.00
  108.00     44.00      1.22  -999.99     1.22      0.0000     -0.00 LINEAR  3.9130E-03   -136.81  0.0000E+00      0.00
  112.00     44.00      0.99  -999.99     0.99      0.0000     -0.00 LINEAR  3.8098E-03   -139.44  0.0000E+00      0.00
  116.00     44.00      0.71  -999.99     0.71      0.0000     -0.00 LINEAR  3.6877E-03   -142.27  0.0000E+00      0.00
  120.00     44.00      0.37  -999.99     0.37      0.0000     -0.00 LINEAR  3.5473E-03   -145.29  0.0000E+00      0.00
  124.00     44.00     -0.02  -999.99    -0.02      0.0000     -0.00 LINEAR  3.3897E-03   -148.47  0.0000E+00      0.00
  128.00     44.00     -0.48  -999.99    -0.48      0.0000     -0.00 LINEAR  3.2159E-03   -151.81  0.0000E+00      0.00
  132.00     44.00     -1.01  -999.99    -1.01      0.0000     -0.00 LINEAR  3.0269E-03   -155.29  0.0000E+00      0.00
  136.00     44.00     -1.61  -999.99    -1.61      0.0000     -0.00 LINEAR  2.8238E-03   -158.89  0.0000E+00      0.00
  140.00     44.00     -2.30  -999.99    -2.30      0.0000     -0.00 LINEAR  2.6078E-03   -162.60  0.0000E+00      0.00
  144.00     44.00     -3.10  -999.99    -3.10      0.0000     -0.00 LINEAR  2.3801E-03   -166.39  0.0000E+00      0.00
  148.00     44.00     -4.01  -999.99    -4.01      0.0000     -0.00 LINEAR  2.1418E-03   -170.25  0.0000E+00      0.00
  152.00     44.00     -5.08  -999.99    -5.08      0.0000     -0.00 LINEAR  1.8943E-03   -174.16  0.0000E+00      0.00
  156.00     44.00     -6.34  -999.99    -6.34      0.0000     -0.00 LINEAR  1.6386E-03   -178.10  0.0000E+00      0.00
  160.00     44.00     -7.86  -999.99    -7.86      0.0000     -0.00 LINEAR  1.3760E-03    177.94  0.0000E+00      0.00
  164.00     44.00     -9.74  -999.99    -9.74      0.0000     -0.00 LINEAR  1.1076E-03    174.00  0.0000E+00      0.00
  168.00     44.00    -12.20  -999.99   -12.20      0.0000     -0.00 LINEAR  8.3470E-04    170.08  0.0000E+00      0.00
  172.00     44.00    -15.69  -999.99   -15.69      0.0000     -0.00 LINEAR  5.5836E-04    166.21  0.0000E+00      0.00
  176.00     44.00    -21.69  -999.99   -21.69      0.0000     -0.00 LINEAR  2.7975E-04    162.40  0.0000E+00      0.00
  180.00     44.00   -999.99  -999.99  -999.99      0.0000      0.00         4.0927E-14    -21.32  0.0000E+00      0.00
    0.00     48.00   -999.99  -999.99  -999.99      0.0000      0.00         0.0000E+00      0.00  0.0000E+00      0.00
    4.00     48.00    -21.68  -999.99   -21.68      0.0000     -0.00 LINEAR  2.8029E-04   -156.12  0.0000E+00      0.00
    8.00     48.00    -15.67  -999.99   -15.67      0.0000     -0.00 LINEAR  5.5944E-04   -152.87  0.0000E+00      0.00
   12.00     48.00    -12.18  -999.99   -12.18      0.0000     -0.00 LINEAR  8.3629E-04   -149.75  0.0000E+00      0.00
   16.00     48.00     -9.72  -999.99    -9.72      0.0000     -0.00 LINEAR  1.1097E-03   -146.79  0.0000E+00      0.00
   20.00     48.00     -7.84  -999.99    -7.84      0.0000     -0.00 LINEAR  1.3785E-03   -143.99  0.0000E+00      0.00
   24.00     48.00     -6.32  -999.99    -6.32      0.0000     -0.00 LINEAR  1.6415E-03   -141.36  0.0000E+00      0.00
   28.00     48.00     -5.06  -999.99    -5.06      0.0000     -0.00 LINEAR  1.8975E-03   -138.92  0.0000E+00      0.00
   32.00     48.00     -4.00  -999.99    -4.00      0.0000     -0.00 LINEAR  2.1453E-03   -136.69  0.0000E+00      0.00
   36.00     48.00     -3.08  -999.99    -3.08      0.0000     -0.00 LINEAR  2.3838E-03   -134.67  0.0000E+00      0.00
   40.00     48.00     -2.29  -999.99    -2.29      0.0000     -0.00 LINEAR  2.6117E-03   -132.87  0.0000E+00      0.00
   44.00     48.00     -1.60  -999.99    -1.60      0.0000     -0.00 LINEAR  2.8277E-03   -131.31  0.0000E+00      0.00
   48.00     48.00     -1.00  -999.99    -1.00      0.0000     -0.00 LINEAR  3.0308E-03   -129.98  0.0000E+00      0.00
   52.00     48.00     -0.47  -999.99    -0.47      0.0000     -0.00 LINEAR  3.2197E-03   -128.90  0.0000E+00      0.00
   56.00     48.00     -0.01  -999.99    -0.01      0.0000     -0.00 LINEAR  3.3934E-03   -128.07  0.0000E+00      0.00
   60.00     48.00      0.38  -999.99     0.38      0.0000     -0.00 LINEAR  3.5507E-03   -127.50  0.0000E+00      0.00
   64.00     48.00      0.71  -999.99     0.71      0.0000     -0.00 LINEAR  3.6908E-03   -127.19  0.0000E+00      0.00
   68.00     48.00      1.00  -999.99     1.00      0.0000     -0.00 LINEAR  3.8126E-03   -127.13  0.0000E+00      0.00
   72.00     48.00      1.23  -999.99     1.23      0.0000     -0.00 LINEAR  3.9154E-03   -127.34  0.0000E+00      0.00
   76.00     48.00      1.41  -999.99     1.41      0.0000     -0.00 LINEAR  3.9984E-03   -127.80  0.0000E+00      0.00
   80.00     48.00      1.55  -999.99     1.55      0.0000     -0.00 LINEAR  4.0611E-03   -128.52  0.0000E+00      0.00
   84.00     48.00      1.63  -999.99     1.63      0.0000     -0.00 LINEAR  4.1031E-03   -129.50  0.0000E+00      0.00
   88.00     48.00      1.68  -999.99     1.68      0.0000     -0.00 LINEAR  4.1240E-03   -130.72  0.0000E+00      0.00
   92.00     48.00      1.68  -999.99     1.68      0.0000     -0.00 LINEAR  4.1237E-03   -132.19  0.0000E+00      0.00
   96.00     48.00      1.63  -999.99     1.63      0.0000     -0.00 LINEAR  4.1022E-03   -133.89  0.0000E+00      0.00
  100.00     48.00      1.54  -999.99     1.54      0.0000     -0.00 LINEAR  4.0597E-03   -135.81  0.0000E+00      0.00
  104.00     48.00      1.41  -999.99     1.41      0.0000     -0.00 LINEAR  3.9965E-03   -137.95  0.0000E+00      0.00
  108.00     48.00      1.22  -999.99     1.22      0.0000     -0.00 LINEAR  3.9130E-03   -140.30  0.0000E+00      0.00
  112.00     48.00      0.99  -999.99     0.99      0.0000     -0.00 LINEAR  3.8098E-03   -142.85  0.0000E+00      0.00
  116.00     48.00      0.71  -999.99     0.71      0.0000     -0.00 LINEAR  3.6877E-03   -145.57  0.0000E+00      0.00
  120.00     48.00      0.37  -999.99     0.37      0.0000     -0.00 LINEAR  3.5473E-03   -148.47  0.0000E+00      0.00
  124.00     48.00     -0.02  -999.99    -0.02      0.0000     -0.00 LINEAR  3.3897E-03   -151.52  0.0000E+00      0.00
  128.00     48.00     -0.48  -999.99    -0.48      0.0000     -0.00 LINEAR  3.2159E-03   -154.71  0.0000E+00      0.00
  132.00     48.00     -1.01  -999.99    -1.01      0.0000     -0.00 LINEAR  3.0269E-03   -158.02  0.0000E+00      0.00
  136.00     48.00     -1.61  -999.99    -1.61      0.0000     -0.00 LINEAR  2.8238E-03   -161.45  0.0000E+00      0.00
  140.00     48.00     -2.30  -999.99    -2.30      0.0000     -0.00 LINEAR  2.6078E-03   -164.96  0.0000E+00      0.00
  144.00     48.00     -3.10  -999.99    -3.10      0.0000     -0.00 LINEAR  2.3801E-03   -168.55  0.0000E+00      0.00
  148.00     48.00     -4.01  -999.99    -4.01      0.0000     -0.00 LINEAR  2.1418E-03   -172.20  0.0000E+00      0.00
  152.00     48.00     -5.08  -999.99    -5.08      0.0000     -0.00 LINEAR  1.8943E-03   -175.89  0.0000E+00      0.00
  156.00     48.00     -6.34  -999.99    -6.34      0.0000     -0.00 LINEAR  1.6386E-03   -179.60  0.0000E+00      0.00
  160.00     48.00     -7.86  -999.99    -7.86      0.0000     -0.00 LINEAR  1.3760E-03    176.69  0.0000E+00      0.00
  164.00     48.00     -9.74  -999.99    -9.74      0.0000     -0.00 LINEAR  1.1076E-03    172.99  0.0000E+00      0.00
  168.00     48.00    -12.20  -999.99   -12.20      0.0000     -0.00 LINEAR  8.3470E-04    169.32  0.0000E+00      0.00
  172.00     48.00    -15.69  -999.99   -15.69      0.0000     -0.00 LINEAR  5.5836E-04    165.70  0.0000E+00      0.00
  176.00     48.00    -21.69  -999.99   -21.69      0.0000     -0.00 LINEAR  2.7975E-04    162.15  0.0000E+00      0.00
  180.00     48.00   -999.99  -999.99  -999.99      0.0000      0.00         4.0927E-14    -21.32  0.0000E+00      0.00
    0.00     52.00   -999.99  -999.99  -999.99      0.0000      0.00         0.0000E+00      0.00  0.0000E+00      0.00
    4.00     52.00    -21.68  -999.99   -21.68      0.0000     -0.00 LINEAR  2.8029E-04   -156.39  0.0000E+00      0.00
    8.00     52.00    -15.67  -999.99   -15.67      0.0000     -0.00 LINEAR  5.5944E-04   -153.41  0.0000E+00      0.00
   12.00     52.00    -12.18  -999.99   -12.18      0.0000     -0.00 LINEAR  8.3629E-04   -150.57  0.0000E+00      0.00
   16.00     52.00     -9.72  -999.99    -9.72      0.0000     -0.00 LINEAR  1.1097E-03   -147.87  0.0000E+00      0.00
   20.00     52.00     -7.84  -999.99    -7.84      0.0000     -0.00 LINEAR  1.3785E-03   -145.32  0.0000E+00      0.00
   24.00     52.00     -6.32  -999.99    -6.32      0.0000     -0.00 LINEAR  1.6415E-03   -142.95  0.0000E+00      0.00
   28.00     52.00     -5.06  -999.99    -5.06      0.0000     -0.00 LINEAR  1.8975E-03   -140.76  0.0000E+00      0.00
   32.00     52.00     -4.00  -999.99    -4.00      0.0000     -0.00 LINEAR  2.1453E-03   -138.77  0.0000E+00      0.00
   36.00     52.00     -3.08  -999.99    -3.08      0.0000     -0.00 LINEAR  2.3838E-03   -136.97  0.0000E+00      0.00
   40.00     52.00     -2.29  -999.99    -2.29      0.0000     -0.00 LINEAR  2.6117E-03   -135.39  0.0000E+00      0.00
   44.00     52.00     -1.60  -999.99    -1.60      0.0000     -0.00 LINEAR  2.8277E-03   -134.03  0.0000E+00      0.00
   48.00     52.00     -1.00  -999.99    -1.00      0.0000     -0.00 LINEAR  3.0308E-03   -132.89  0.0000E+00      0.00
   52.00     52.00     -0.47  -999.99    -0.47      0.0000     -0.00 LINEAR  3.2197E-03   -131.99  0.0000E+00      0.00
   56.00     52.00     -0.01  -999.99    -0.01      0.0000     -0.00 LINEAR  3.3934E-03   -131.32  0.0000E+00      0.00
   60.00     52.00      0.38  -999.99     0.38      0.0000     -0.00 LINEAR  3.5507E-03   -130.89  0.0000E+00      0.00
   64.00     52.00      0.71  -999.99     0.71      0.0000     -0.00 LINEAR  3.6908E-03   -130.70  0.0000E+00      0.00
   68.00     52.00      1.00  -999.99     1.00      0.0000     -0.00 LINEAR  3.8126E-03   -130.76  0.0000E+00      0.00
   72.00     52.00      1.23  -999.99     1.23      0.0000     -0.00 LINEAR  3.9154E-03   -131.06  0.0000E+00      0.00
[...]
   76.00    344.00      1.41  -999.99     1.41      0.0000     -0.00 LINEAR  3.9984E-03   -107.05  0.0000E+00      0.00
   80.00    344.00      1.55  -999.99     1.55      0.0000     -0.00 LINEAR  4.0611E-03   -107.46  0.0000E+00      0.00
   84.00    344.00      1.63  -999.99     1.63      0.0000     -0.00 LINEAR  4.1031E-03   -108.23  0.0000E+00      0.00
   88.00    344.00      1.68  -999.99     1.68      0.0000     -0.00 LINEAR  4.1240E-03   -109.35  0.0000E+00      0.00
   92.00    344.00      1.68  -999.99     1.68      0.0000     -0.00 LINEAR  4.1237E-03   -110.81  0.0000E+00      0.00
   96.00    344.00      1.63  -999.99     1.63      0.0000     -0.00 LINEAR  4.1022E-03   -112.62  0.0000E+00      0.00
  100.00    344.00      1.54  -999.99     1.54      0.0000     -0.00 LINEAR  4.0597E-03   -114.75  0.0000E+00      0.00
  104.00    344.00      1.41  -999.99     1.41      0.0000     -0.00 LINEAR  3.9965E-03   -117.20  0.0000E+00      0.00
  108.00    344.00      1.22  -999.99     1.22      0.0000     -0.00 LINEAR  3.9130E-03   -119.97  0.0000E+00      0.00
  112.00    344.00      0.99  -999.99     0.99      0.0000     -0.00 LINEAR  3.8098E-03   -123.02  0.0000E+00      0.00
  116.00    344.00      0.71  -999.99     0.71      0.0000     -0.00 LINEAR  3.6877E-03   -126.35  0.0000E+00      0.00
  120.00    344.00      0.37  -999.99     0.37      0.0000     -0.00 LINEAR  3.5473E-03   -129.95  0.0000E+00      0.00
  124.00    344.00     -0.02  -999.99    -0.02      0.0000     -0.00 LINEAR  3.3897E-03   -133.79  0.0000E+00      0.00
  128.00    344.00     -0.48  -999.99    -0.48      0.0000     -0.00 LINEAR  3.2159E-03   -137.86  0.0000E+00      0.00
  132.00    344.00     -1.01  -999.99    -1.01      0.0000     -0.00 LINEAR  3.0269E-03   -142.13  0.0000E+00      0.00
  136.00    344.00     -1.61  -999.99    -1.61      0.0000     -0.00 LINEAR  2.8238E-03   -146.59  0.0000E+00      0.00
  140.00    344.00     -2.30  -999.99    -2.30      0.0000     -0.00 LINEAR  2.6078E-03   -151.22  0.0000E+00      0.00
  144.00    344.00     -3.10  -999.99    -3.10      0.0000     -0.00 LINEAR  2.3801E-03   -155.98  0.0000E+00      0.00
  148.00    344.00     -4.01  -999.99    -4.01      0.0000     -0.00 LINEAR  2.1418E-03   -160.87  0.0000E+00      0.00
  152.00    344.00     -5.08  -999.99    -5.08      0.0000     -0.00 LINEAR  1.8943E-03   -165.85  0.0000E+00      0.00
  156.00    344.00     -6.34  -999.99    -6.34      0.0000     -0.00 LINEAR  1.6386E-03   -170.90  0.0000E+00      0.00
  160.00    344.00     -7.86  -999.99    -7.86      0.0000     -0.00 LINEAR  1.3760E-03   -176.00  0.0000E+00      0.00
  164.00    344.00     -9.74  -999.99    -9.74      0.0000     -0.00 LINEAR  1.1076E-03    178.88  0.0000E+00      0.00
  168.00    344.00    -12.20  -999.99   -12.20      0.0000     -0.00 LINEAR  8.3470E-04    173.76  0.0000E+00      0.00
  172.00    344.00    -15.69  -999.99   -15.69      0.0000     -0.00 LINEAR  5.5836E-04    168.68  0.0000E+00      0.00
  176.00    344.00    -21.69  -999.99   -21.69      0.0000     -0.00 LINEAR  2.7975E-04    163.64  0.0000E+00      0.00
  180.00    344.00   -999.99  -999.99  -999.99      0.0000      0.00         4.0927E-14    -21.32  0.0000E+00      0.00
    0.00    348.00   -999.99  -999.99  -999.99      0.0000      0.00         0.0000E+00      0.00  0.0000E+00      0.00
    4.00    348.00    -21.68  -999.99   -21.68      0.0000     -0.00 LINEAR  2.8029E-04   -154.54  0.0000E+00      0.00
    8.00    348.00    -15.67  -999.99   -15.67      0.0000     -0.00 LINEAR  5.5944E-04   -149.72  0.0000E+00      0.00
   12.00    348.00    -12.18  -999.99   -12.18      0.0000     -0.00 LINEAR  8.3629E-04   -145.05  0.0000E+00      0.00
   16.00    348.00     -9.72  -999.99    -9.72      0.0000     -0.00 LINEAR  1.1097E-03   -140.55  0.0000E+00      0.00
   20.00    348.00     -7.84  -999.99    -7.84      0.0000     -0.00 LINEAR  1.3785E-03   -136.25  0.0000E+00      0.00
   24.00    348.00     -6.32  -999.99    -6.32      0.0000     -0.00 LINEAR  1.6415E-03   -132.16  0.0000E+00      0.00
   28.00    348.00     -5.06  -999.99    -5.06      0.0000     -0.00 LINEAR  1.8975E-03   -128.30  0.0000E+00      0.00
   32.00    348.00     -4.00  -999.99    -4.00      0.0000     -0.00 LINEAR  2.1453E-03   -124.70  0.0000E+00      0.00
   36.00    348.00     -3.08  -999.99    -3.08      0.0000     -0.00 LINEAR  2.3838E-03   -121.37  0.0000E+00      0.00
   40.00    348.00     -2.29  -999.99    -2.29      0.0000     -0.00 LINEAR  2.6117E-03   -118.33  0.0000E+00      0.00
   44.00    348.00     -1.60  -999.99    -1.60      0.0000     -0.00 LINEAR  2.8277E-03   -115.59  0.0000E+00      0.00
   48.00    348.00     -1.00  -999.99    -1.00      0.0000     -0.00 LINEAR  3.0308E-03   -113.17  0.0000E+00      0.00
   52.00    348.00     -0.47  -999.99    -0.47      0.0000     -0.00 LINEAR  3.2197E-03   -111.08  0.0000E+00      0.00
   56.00    348.00     -0.01  -999.99    -0.01      0.0000     -0.00 LINEAR  3.3934E-03   -109.32  0.0000E+00      0.00
   60.00    348.00      0.38  -999.99     0.38      0.0000     -0.00 LINEAR  3.5507E-03   -107.91  0.0000E+00      0.00
   64.00    348.00      0.71  -999.99     0.71      0.0000     -0.00 LINEAR  3.6908E-03   -106.86  0.0000E+00      0.00
   68.00    348.00      1.00  -999.99     1.00      0.0000     -0.00 LINEAR  3.8126E-03   -106.16  0.0000E+00      0.00
   72.00    348.00      1.23  -999.99     1.23      0.0000     -0.00 LINEAR  3.9154E-03   -105.82  0.0000E+00      0.00
   76.00    348.00      1.41  -999.99     1.41      0.0000     -0.00 LINEAR  3.9984E-03   -105.85  0.0000E+00      0.00
   80.00    348.00      1.55  -999.99     1.55      0.0000     -0.00 LINEAR  4.0611E-03   -106.25  0.0000E+00      0.00
   84.00    348.00      1.63  -999.99     1.63      0.0000     -0.00 LINEAR  4.1031E-03   -107.00  0.0000E+00      0.00
   88.00    348.00      1.68  -999.99     1.68      0.0000     -0.00 LINEAR  4.1240E-03   -108.11  0.0000E+00      0.00
   92.00    348.00      1.68  -999.99     1.68      0.0000     -0.00 LINEAR  4.1237E-03   -109.58  0.0000E+00      0.00
   96.00    348.00      1.63  -999.99     1.63      0.0000     -0.00 LINEAR  4.1022E-03   -111.39  0.0000E+00      0.00
  100.00    348.00      1.54  -999.99     1.54      0.0000     -0.00 LINEAR  4.0597E-03   -113.53  0.0000E+00      0.00
  104.00    348.00      1.41  -999.99     1.41      0.0000     -0.00 LINEAR  3.9965E-03   -116.01  0.0000E+00      0.00
  108.00    348.00      1.22  -999.99     1.22      0.0000     -0.00 LINEAR  3.9130E-03   -118.79  0.0000E+00      0.00
  112.00    348.00      0.99  -999.99     0.99      0.0000     -0.00 LINEAR  3.8098E-03   -121.87  0.0000E+00      0.00
  116.00    348.00      0.71  -999.99     0.71      0.0000     -0.00 LINEAR  3.6877E-03   -125.24  0.0000E+00      0.00
  120.00    348.00      0.37  -999.99     0.37      0.0000     -0.00 LINEAR  3.5473E-03   -128.88  0.0000E+00      0.00
  124.00    348.00     -0.02  -999.99    -0.02      0.0000     -0.00 LINEAR  3.3897E-03   -132.77  0.0000E+00      0.00
  128.00    348.00     -0.48  -999.99    -0.48      0.0000     -0.00 LINEAR  3.2159E-03   -136.88  0.0000E+00      0.00
  132.00    348.00     -1.01  -999.99    -1.01      0.0000     -0.00 LINEAR  3.0269E-03   -141.21  0.0000E+00      0.00
  136.00    348.00     -1.61  -999.99    -1.61      0.0000     -0.00 LINEAR  2.8238E-03   -145.73  0.0000E+00      0.00
  140.00    348.00     -2.30  -999.99    -2.30      0.0000     -0.00 LINEAR  2.6078E-03   -150.42  0.0000E+00      0.00
  144.00    348.00     -3.10  -999.99    -3.10      0.0000     -0.00 LINEAR  2.3801E-03   -155.26  0.0000E+00      0.00
  148.00    348.00     -4.01  -999.99    -4.01      0.0000     -0.00 LINEAR  2.1418E-03   -160.21  0.0000E+00      0.00
  152.00    348.00     -5.08  -999.99    -5.08      0.0000     -0.00 LINEAR  1.8943E-03   -165.27  0.0000E+00      0.00
  156.00    348.00     -6.34  -999.99    -6.34      0.0000     -0.00 LINEAR  1.6386E-03   -170.40  0.0000E+00      0.00
  160.00    348.00     -7.86  -999.99    -7.86      0.0000     -0.00 LINEAR  1.3760E-03   -175.58  0.0000E+00      0.00
  164.00    348.00     -9.74  -999.99    -9.74      0.0000     -0.00 LINEAR  1.1076E-03    179.22  0.0000E+00      0.00
  168.00    348.00    -12.20  -999.99   -12.20      0.0000     -0.00 LINEAR  8.3470E-04    174.02  0.0000E+00      0.00
  172.00    348.00    -15.69  -999.99   -15.69      0.0000     -0.00 LINEAR  5.5836E-04    168.85  0.0000E+00      0.00
  176.00    348.00    -21.69  -999.99   -21.69      0.0000     -0.00 LINEAR  2.7975E-04    163.73  0.0000E+00      0.00
  180.00    348.00   -999.99  -999.99  -999.99      0.0000      0.00         4.0927E-14    -21.32  0.0000E+00      0.00
    0.00    352.00   -999.99  -999.99  -999.99      0.0000      0.00         0.0000E+00      0.00  0.0000E+00      0.00
    4.00    352.00    -21.68  -999.99   -21.68      0.0000     -0.00 LINEAR  2.8029E-04   -154.48  0.0000E+00      0.00
    8.00    352.00    -15.67  -999.99   -15.67      0.0000     -0.00 LINEAR  5.5944E-04   -149.60  0.0000E+00      0.00
   12.00    352.00    -12.18  -999.99   -12.18      0.0000     -0.00 LINEAR  8.3629E-04   -144.87  0.0000E+00      0.00
   16.00    352.00     -9.72  -999.99    -9.72      0.0000     -0.00 LINEAR  1.1097E-03   -140.31  0.0000E+00      0.00
   20.00    352.00     -7.84  -999.99    -7.84      0.0000     -0.00 LINEAR  1.3785E-03   -135.95  0.0000E+00      0.00
   24.00    352.00     -6.32  -999.99    -6.32      0.0000     -0.00 LINEAR  1.6415E-03   -131.80  0.0000E+00      0.00
   28.00    352.00     -5.06  -999.99    -5.06      0.0000     -0.00 LINEAR  1.8975E-03   -127.89  0.0000E+00      0.00
   32.00    352.00     -4.00  -999.99    -4.00      0.0000     -0.00 LINEAR  2.1453E-03   -124.23  0.0000E+00      0.00
   36.00    352.00     -3.08  -999.99    -3.08      0.0000     -0.00 LINEAR  2.3838E-03   -120.85  0.0000E+00      0.00
   40.00    352.00     -2.29  -999.99    -2.29      0.0000     -0.00 LINEAR  2.6117E-03   -117.76  0.0000E+00      0.00
   44.00    352.00     -1.60  -999.99    -1.60      0.0000     -0.00 LINEAR  2.8277E-03   -114.98  0.0000E+00      0.00
   48.00    352.00     -1.00  -999.99    -1.00      0.0000     -0.00 LINEAR  3.0308E-03   -112.51  0.0000E+00      0.00
   52.00    352.00     -0.47  -999.99    -0.47      0.0000     -0.00 LINEAR  3.2197E-03   -110.38  0.0000E+00      0.00
   56.00    352.00     -0.01  -999.99    -0.01      0.0000     -0.00 LINEAR  3.3934E-03   -108.58  0.0000E+00      0.00
   60.00    352.00      0.38  -999.99     0.38      0.0000     -0.00 LINEAR  3.5507E-03   -107.14  0.0000E+00      0.00
   64.00    352.00      0.71  -999.99     0.71      0.0000     -0.00 LINEAR  3.6908E-03   -106.06  0.0000E+00      0.00
   68.00    352.00      1.00  -999.99     1.00      0.0000     -0.00 LINEAR  3.8126E-03   -105.34  0.0000E+00      0.00
   72.00    352.00      1.23  -999.99     1.23      0.0000     -0.00 LINEAR  3.9154E-03   -104.98  0.0000E+00      0.00
   76.00    352.00      1.41  -999.99     1.41      0.0000     -0.00 LINEAR  3.9984E-03   -104.99  0.0000E+00      0.00
   80.00    352.00      1.55  -999.99     1.55      0.0000     -0.00 LINEAR  4.0611E-03   -105.37  0.0000E+00      0.00
   84.00    352.00      1.63  -999.99     1.63      0.0000     -0.00 LINEAR  4.1031E-03   -106.12  0.0000E+00      0.00
   88.00    352.00      1.68  -999.99     1.68      0.0000     -0.00 LINEAR  4.1240E-03   -107.23  0.0000E+00      0.00
   92.00    352.00      1.68  -999.99     1.68      0.0000     -0.00 LINEAR  4.1237E-03   -108.69  0.0000E+00      0.00
   96.00    352.00      1.63  -999.99     1.63      0.0000     -0.00 LINEAR  4.1022E-03   -110.51  0.0000E+00      0.00
  100.00    352.00      1.54  -999.99     1.54      0.0000     -0.00 LINEAR  4.0597E-03   -112.66  0.0000E+00      0.00
  104.00    352.00      1.41  -999.99     1.41      0.0000     -0.00 LINEAR  3.9965E-03   -115.14  0.0000E+00      0.00
  108.00    352.00      1.22  -999.99     1.22      0.0000     -0.00 LINEAR  3.9130E-03   -117.95  0.0000E+00      0.00
  112.00    352.00      0.99  -999.99     0.99      0.0000     -0.00 LINEAR  3.8098E-03   -121.05  0.0000E+00      0.00
  116.00    352.00      0.71  -999.99     0.71      0.0000     -0.00 LINEAR  3.6877E-03   -124.44  0.0000E+00      0.00
  120.00    352.00      0.37  -999.99     0.37      0.0000     -0.00 LINEAR  3.5473E-03   -128.11  0.0000E+00      0.00
  124.00    352.00     -0.02  -999.99    -0.02      0.0000     -0.00 LINEAR  3.3897E-03   -132.03  0.0000E+00      0.00
  128.00    352.00     -0.48  -999.99    -0.48      0.0000     -0.00 LINEAR  3.2159E-03   -136.19  0.0000E+00      0.00
  132.00    352.00     -1.01  -999.99    -1.01      0.0000     -0.00 LINEAR  3.0269E-03   -140.55  0.0000E+00      0.00
  136.00    352.00     -1.61  -999.99    -1.61      0.0000     -0.00 LINEAR  2.8238E-03   -145.12  0.0000E+00      0.00
  140.00    352.00     -2.30  -999.99    -2.30      0.0000     -0.00 LINEAR  2.6078E-03   -149.85  0.0000E+00      0.00
  144.00    352.00     -3.10  -999.99    -3.10      0.0000     -0.00 LINEAR  2.3801E-03   -154.74  0.0000E+00      0.00
  148.00    352.00     -4.01  -999.99    -4.01      0.0000     -0.00 LINEAR  2.1418E-03   -159.74  0.0000E+00      0.00
  152.00    352.00     -5.08  -999.99    -5.08      0.0000     -0.00 LINEAR  1.8943E-03   -164.85  0.0000E+00      0.00
  156.00    352.00     -6.34  -999.99    -6.34      0.0000     -0.00 LINEAR  1.6386E-03   -170.04  0.0000E+00      0.00
  160.00    352.00     -7.86  -999.99    -7.86      0.0000     -0.00 LINEAR  1.3760E-03   -175.27  0.0000E+00      0.00
  164.00    352.00     -9.74  -999.99    -9.74      0.0000     -0.00 LINEAR  1.1076E-03    179.47  0.0000E+00      0.00
  168.00    352.00    -12.20  -999.99   -12.20      0.0000     -0.00 LINEAR  8.3470E-04    174.21  0.0000E+00      0.00
  172.00    352.00    -15.69  -999.99   -15.69      0.0000     -0.00 LINEAR  5.5836E-04    168.97  0.0000E+00      0.00
  176.00    352.00    -21.69  -999.99   -21.69      0.0000     -0.00 LINEAR  2.7975E-04    163.79  0.0000E+00      0.00
  180.00    352.00   -999.99  -999.99  -999.99      0.0000      0.00         4.0927E-14    -21.32  0.0000E+00      0.00
    0.00    356.00   -999.99  -999.99  -999.99      0.0000      0.00         0.0000E+00      0.00  0.0000E+00      0.00
    4.00    356.00    -21.68  -999.99   -21.68      0.0000     -0.00 LINEAR  2.8029E-04   -154.44  0.0000E+00      0.00
    8.00    356.00    -15.67  -999.99   -15.67      0.0000     -0.00 LINEAR  5.5944E-04   -149.52  0.0000E+00      0.00
   12.00    356.00    -12.18  -999.99   -12.18      0.0000     -0.00 LINEAR  8.3629E-04   -144.76  0.0000E+00      0.00
   16.00    356.00     -9.72  -999.99    -9.72      0.0000     -0.00 LINEAR  1.1097E-03   -140.16  0.0000E+00      0.00
   20.00    356.00     -7.84  -999.99    -7.84      0.0000     -0.00 LINEAR  1.3785E-03   -135.76  0.0000E+00      0.00
   24.00    356.00     -6.32  -999.99    -6.32      0.0000     -0.00 LINEAR  1.6415E-03   -131.58  0.0000E+00      0.00
   28.00    356.00     -5.06  -999.99    -5.06      0.0000     -0.00 LINEAR  1.8975E-03   -127.64  0.0000E+00      0.00
   32.00    356.00     -4.00  -999.99    -4.00      0.0000     -0.00 LINEAR  2.1453E-03   -123.95  0.0000E+00      0.00
   36.00    356.00     -3.08  -999.99    -3.08      0.0000     -0.00 LINEAR  2.3838E-03   -120.54  0.0000E+00      0.00
   40.00    356.00     -2.29  -999.99    -2.29      0.0000     -0.00 LINEAR  2.6117E-03   -117.42  0.0000E+00      0.00
   44.00    356.00     -1.60  -999.99    -1.60      0.0000     -0.00 LINEAR  2.8277E-03   -114.61  0.0000E+00      0.00
   48.00    356.00     -1.00  -999.99    -1.00      0.0000     -0.00 LINEAR  3.0308E-03   -112.11  0.0000E+00      0.00
   52.00    356.00     -0.47  -999.99    -0.47      0.0000     -0.00 LINEAR  3.2197E-03   -109.96  0.0000E+00      0.00
   56.00    356.00     -0.01  -999.99    -0.01      0.0000     -0.00 LINEAR  3.3934E-03   -108.14  0.0000E+00      0.00
   60.00    356.00      0.38  -999.99     0.38      0.0000     -0.00 LINEAR  3.5507E-03   -106.68  0.0000E+00      0.00
   64.00    356.00      0.71  -999.99     0.71      0.0000     -0.00 LINEAR  3.6908E-03   -105.58  0.0000E+00      0.00
   68.00    356.00      1.00  -999.99     1.00      0.0000     -0.00 LINEAR  3.8126E-03   -104.84  0.0000E+00      0.00
   72.00    356.00      1.23  -999.99     1.23      0.0000     -0.00 LINEAR  3.9154E-03   -104.47  0.0000E+00      0.00
   76.00    356.00      1.41  -999.99     1.41      0.0000     -0.00 LINEAR  3.9984E-03   -104.47  0.0000E+00      0.00
   80.00    356.00      1.55  -999.99     1.55      0.0000     -0.00 LINEAR  4.0611E-03   -104.85  0.0000E+00      0.00
   84.00    356.00      1.63  -999.99     1.63      0.0000     -0.00 LINEAR  4.1031E-03   -105.59  0.0000E+00      0.00
   88.00    356.00      1.68  -999.99     1.68      0.0000     -0.00 LINEAR  4.1240E-03   -106.69  0.0000E+00      0.00
   92.00    356.00      1.68  -999.99     1.68      0.0000     -0.00 LINEAR  4.1237E-03   -108.16  0.0000E+00      0.00
   96.00    356.00      1.63  -999.99     1.63      0.0000     -0.00 LINEAR  4.1022E-03   -109.97  0.0000E+00      0.00
  100.00    356.00      1.54  -999.99     1.54      0.0000     -0.00 LINEAR  4.0597E-03   -112.13  0.0000E+00      0.00
  104.00    356.00      1.41  -999.99     1.41      0.0000     -0.00 LINEAR  3.9965E-03   -114.63  0.0000E+00      0.00
  108.00    356.00      1.22  -999.99     1.22      0.0000     -0.00 LINEAR  3.9130E-03   -117.44  0.0000E+00      0.00
  112.00    356.00      0.99  -999.99     0.99      0.0000     -0.00 LINEAR  3.8098E-03   -120.56  0.0000E+00      0.00
  116.00    356.00      0.71  -999.99     0.71      0.0000     -0.00 LINEAR  3.6877E-03   -123.96  0.0000E+00      0.00
  120.00    356.00      0.37  -999.99     0.37      0.0000     -0.00 LINEAR  3.5473E-03   -127.65  0.0000E+00      0.00
  124.00    356.00     -0.02  -999.99    -0.02      0.0000     -0.00 LINEAR  3.3897E-03   -131.59  0.0000E+00      0.00
  128.00    356.00     -0.48  -999.99    -0.48      0.0000     -0.00 LINEAR  3.2159E-03   -135.76  0.0000E+00      0.00
  132.00    356.00     -1.01  -999.99    -1.01      0.0000     -0.00 LINEAR  3.0269E-03   -140.16  0.0000E+00      0.00
  136.00    356.00     -1.61  -999.99    -1.61      0.0000     -0.00 LINEAR  2.8238E-03   -144.75  0.0000E+00      0.00
  140.00    356.00     -2.30  -999.99    -2.30      0.0000     -0.00 LINEAR  2.6078E-03   -149.51  0.0000E+00      0.00
  144.00    356.00     -3.10  -999.99    -3.10      0.0000     -0.00 LINEAR  2.3801E-03   -154.42  0.0000E+00      0.00
  148.00    356.00     -4.01  -999.99    -4.01      0.0000     -0.00 LINEAR  2.1418E-03   -159.46  0.0000E+00      0.00
  152.00    356.00     -5.08  -999.99    -5.08      0.0000     -0.00 LINEAR  1.8943E-03   -164.60  0.0000E+00      0.00
  156.00    356.00     -6.34  -999.99    -6.34      0.0000     -0.00 LINEAR  1.6386E-03   -169.82  0.0000E+00      0.00
  160.00    356.00     -7.86  -999.99    -7.86      0.0000     -0.00 LINEAR  1.3760E-03   -175.09  0.0000E+00      0.00
  164.00    356.00     -9.74  -999.99    -9.74      0.0000     -0.00 LINEAR  1.1076E-03    179.61  0.0000E+00      0.00
  168.00    356.00    -12.20  -999.99   -12.20      0.0000     -0.00 LINEAR  8.3470E-04    174.32  0.0000E+00      0.00
  172.00    356.00    -15.69  -999.99   -15.69      0.0000     -0.00 LINEAR  5.5836E-04    169.05  0.0000E+00      0.00
  176.00    356.00    -21.69  -999.99   -21.69      0.0000     -0.00 LINEAR  2.7975E-04    163.83  0.0000E+00      0.00
  180.00    356.00   -999.99  -999.99  -999.99      0.0000      0.00         4.0927E-14    -21.32  0.0000E+00      0.00








*****  DATA CARD N0.   5 EN   0     0     0     0  0.00000E+00  0.00000E+00  0.00000E+00  0.00000E+00  0.00000E+00  0.00000E+00

  TOTAL RUN TIME: 30 msec