


                                __________________________________________
                               |                                          |
                               | NUMERICAL ELECTROMAGNETICS CODE (nec2++) |
                               | Translated to 'C++' in Double Precision  |
                               |        Version 1.5.1 [2014-01-02]        |
                               |__________________________________________|



                                -------- STRUCTURE SPECIFICATION --------
                                COORDINATES MUST BE INPUT IN
                                METERS OR BE SCALED TO METERS
                                BEFORE STRUCTURE INPUT IS ENDED
  WIRE                                                                                 SEG FIRST  LAST  TAG
   No:        X1         Y1         Z1         X2         Y2         Z2       RADIUS   No:   SEG   SEG  No:

     1      0.2032     0.0000     0.0000     0.2032     0.0000     0.4800     0.0010     8     1     8    1
     STRUCTURE SCALED BY FACTOR:    1.00000

     TOTAL SEGMENTS USED: 8   SEGMENTS IN A SYMMETRIC CELL: 8   SYMMETRY FLAG: 0


                               ---------- SEGMENTATION DATA ----------
                                        COORDINATES IN METERS
                            I+ AND I- INDICATE THE SEGMENTS BEFORE AND AFTER I

   SEG    COORDINATES OF SEGM CENTER     SEGM    ORIENTATION ANGLES    WIRE    CONNECTION DATA   TAG
   No:       X         Y         Z      LENGTH     ALPHA      BETA    RADIUS    I-     I    I+   NO:
     1    0.2032    0.0000    0.0300    0.0600   90.0000    0.0000    0.0010     0     1     2     1
     2    0.2032    0.0000    0.0900    0.0600   90.0000    0.0000    0.0010     1     2     3     1
     3    0.2032    0.0000    0.1500    0.0600   90.0000    0.0000    0.0010     2     3     4     1
     4    0.2032    0.0000    0.2100    0.0600   90.0000    0.0000    0.0010     3     4     5     1
     5    0.2032    0.0000    0.2700    0.0600   90.0000    0.0000    0.0010     4     5     6     1
     6    0.2032    0.0000    0.3300    0.0600   90.0000    0.0000    0.0010     5     6     7     1
     7    0.2032    0.0000    0.3900    0.0600   90.0000    0.0000    0.0010     6     7     8     1
     8    0.2032    0.0000    0.4500    0.0600   90.0000    0.0000    0.0010     7     8     0     1



*****  DATA CARD N0.   1 GN  -1     0     0     0  0.00000E+00  0.00000E+00  0.00000E+00  0.00000E+00  0.00000E+00  0.00000E+00
*****  DATA CARD N0.   2 FR   0     1     0     0  1.00000E+02  1.00000E+01  0.00000E+00  0.00000E+00  0.00000E+00  0.00000E+00
*****  DATA CARD N0.   3 EX   0     1     1     0  1.00000E+00  0.00000E+00  0.00000E+00  0.00000E+00  0.00000E+00  0.00000E+00
*****  DATA CARD N0.   4 RP   0    46    90  1000  0.00000E+00  0.00000E+00  4.00000E+00  4.00000E+00  0.00000E+00  0.00000E+00


                               --------- FREQUENCY --------
                               FREQUENCY=  1.0000E+02 MHZ
                               WAVELENGTH= 2.9980E+00 METERS


                        APPROXIMATE INTEGRATION EMPLOYED FOR SEGMENTS
                        THAT ARE MORE THAN 1.000 WAVELENGTHS APART



                          ------ STRUCTURE IMPEDANCE LOADING ------
                                 THIS STRUCTURE IS NOT LOADED



                            -------- ANTENNA ENVIRONMENT --------
                            FREE SPACE



                             ---------- MATRIX TIMING ----------
                               FILL= 0 msec  FACTOR: 0 msec


                      ----- ANTENNA INPUT PARAMETERS -----
  TAG   SEG       VOLTAGE (VOLTS)         CURRENT (AMPS)         IMPEDANCE (OHMS)        ADMITTANCE (MHOS)     POWER
  NO.   NO.     REAL      IMAGINARY     REAL      IMAGINARY     REAL      IMAGINARY    REAL       IMAGINARY   (WATTS)
   1     1  1.0000E+00  0.0000E+00  3.8542E-07  2.1831E-04  8.0869E+00 -4.5806E+03  3.8542E-07  2.1831E-04  1.9271E-07







                        ----- CURRENTS AND LOCATION -----
                            DISTANCES IN WAVELENGTHS 

   SEG  TAG    COORDINATES OF SEGM CENTER     SEGM    ------------- CURRENT (AMPS) -------------
   No:  No:       X         Y         Z      LENGTH     REAL      IMAGINARY    MAGN        PHASE
     1    1    0.0678    0.0000    0.0100   0.02001  3.8542E-07  2.1831E-04  2.1831E-04   89.899 
     2    1    0.0678    0.0000    0.0300   0.02001  9.0625E-07  2.3467E-04  2.3467E-04   89.779 
     3    1    0.0678    0.0000    0.0500   0.02001  1.2301E-06  1.9510E-04  1.9511E-04   89.639 
     4    1    0.0678    0.0000    0.0700   0.02001  1.3889E-06  1.6240E-04  1.6241E-04   89.510 
     5    1    0.0678    0.0000    0.0901   0.02001  1.3873E-06  1.2991E-04  1.2992E-04   89.388 
     6    1    0.0678    0.0000    0.1101   0.02001  1.2260E-06  9.6421E-05  9.6429E-05   89.272 
     7    1    0.0678    0.0000    0.1301   0.02001  9.0121E-07  6.1364E-05  6.1371E-05   89.159 
     8    1    0.0678    0.0000    0.1501   0.02001  3.8242E-07  2.3064E-05  2.3067E-05   89.050 






                               ---------- POWER BUDGET ---------
                               INPUT POWER   =  1.9271E-07 Watts
                               RADIATED POWER=  1.9271E-07 Watts
                               STRUCTURE LOSS=  0.0000E+00 Watts
                               NETWORK LOSS  =  0.0000E+00 Watts
                               EFFICIENCY    =  100.00 Percent


                         ----- RADIATION PATTERNS -----
 ---- ANGLES -----     ----- POWER GAINS -----       ---- POLARIZATION ----   ---- E(THETA) ----    ----- E(PHI) ------
  THETA      PHI       VERTC   HORIZ   TOTAL       AXIAL      TILT  SENSE   MAGNITUDE    PHASE    MAGNITUDE     PHASE
 DEGREES   DEGREES        DB       DB       DB       RATIO   DEGREES            VOLTS/M   DEGREES     VOLTS/M   DEGREES
    0.00      0.00   -999.99  -999.99  -999.99      0.0000      0.00         0.0000E+00      0.00  0.0000E+00      0.00
    4.00      0.00    -21.68  -999.99   -21.68      0.0000     -0.00 LINEAR  2.8029E-04   -157.83  0.0000E+00      0.00
    8.00      0.00    -15.67  -999.99   -15.67      0.0000     -0.00 LINEAR  5.5944E-04   -156.29  0.0000E+00      0.00
   12.00      0.00    -12.18  -999.99   -12.18      0.0000     -0.00 LINEAR  8.3629E-04   -154.87  0.0000E+00      0.00
   16.00      0.00     -9.72  -999.99    -9.72      0.0000     -0.00 LINEAR  1.1097E-03   -153.56  0.0000E+00      0.00
   20.00      0.00     -7.84  -999.99    -7.84      0.0000     -0.00 LINEAR  1.3785E-03   -152.39  0.0000E+00      0.00
   24.00      0.00     -6.32  -999.99    -6.32      0.0000     -0.00 LINEAR  1.6415E-03   -151.36  0.0000E+00      0.00
   28.00      0.00     -5.06  -999.99    -5.06      0.0000     -0.00 LINEAR  1.8975E-03   -150.46  0.0000E+00      0.00
   32.00      0.00     -4.00  -999.99    -4.00      0.0000     -0.00 LINEAR  2.1453E-03   -149.72  0.0000E+00      0.00
   36.00      0.00     -3.08  -999.99    -3.08      0.0000     -0.00 LINEAR  2.3838E-03   -149.12  0.0000E+00      0.00
   40.00      0.00     -2.29  -999.99    -2.29      0.0000     -0.00 LINEAR  2.6117E-03   -148.67  0.0000E+00      0.00
   44.00      0.00     -1.60  -999.99    -1.60      0.0000     -0.00 LINEAR  2.8277E-03   -148.38  0.0000E+00      0.00
   48.00      0.00     -1.00  -999.99    -1.00      0.0000     -0.00 LINEAR  3.0308E-03   -148.25  0.0000E+00      0.00
   52.00      0.00     -0.47  -999.99    -0.47      0.0000     -0.00 LINEAR  3.2197E-03   -148.27  0.0000E+00      0.00
   56.00      0.00     -0.01  -999.99    -0.01      0.0000     -0.00 LINEAR  3.3934E-03   -148.45  0.0000E+00      0.00
   60.00      0.00      0.38  -999.99     0.38      0.0000     -0.00 LINEAR  3.5507E-03   -148.79  0.0000E+00      0.00
   64.00      0.00      0.71  -999.99     0.71      0.0000     -0.00 LINEAR  3.6908E-03   -149.28  0.0000E+00      0.00
   68.00      0.00      1.00  -999.99     1.00      0.0000     -0.00 LINEAR  3.8126E-03   -149.92  0.0000E+00      0.00
   72.00      0.00      1.23  -999.99     1.23      0.0000     -0.00 LINEAR  3.9154E-03   -150.72  0.0000E+00      0.00
   76.00      0.00      1.41  -999.99     1.41      0.0000     -0.00 LINEAR  3.9984E-03   -151.65  0.0000E+00      0.00
   80.00      0.00      1.55  -999.99     1.55      0.0000     -0.00 LINEAR  4.0611E-03   -152.73  0.0000E+00      0.00
   84.00      0.00      1.63  -999.99     1.63      0.0000     -0.00 LINEAR  4.1031E-03   -153.94  0.0000E+00      0.00
   88.00      0.00      1.68  -999.99     1.68      0.0000     -0.00 LINEAR  4.1240E-03   -155.29  0.0000E+00      0.00
   92.00      0.00      1.68  -999.99     1.68      0.0000     -0.00 LINEAR  4.1237E-03   -156.75  0.0000E+00      0.00
   96.00      0.00      1.63  -999.99     1.63      0.0000     -0.00 LINEAR  4.1022E-03   -158.33  0.0000E+00      0.00
  100.00      0.00      1.54  -999.99     1.54      0.0000     -0.00 LINEAR  4.0597E-03   -160.02  0.0000E+00      0.00
  104.00      0.00      1.41  -999.99     1.41      0.0000     -0.00 LINEAR  3.9965E-03   -161.80  0.0000E+00      0.00
  108.00      0.00      1.22  -999.99     1.22      0.0000     -0.00 LINEAR  3.9130E-03   -163.68  0.0000E+00      0.00
  112.00      0.00      0.99  -999.99     0.99      0.0000     -0.00 LINEAR  3.8098E-03   -165.64  0.0000E+00      0.00
  116.00      0.00      0.71  -999.99     0.71      0.0000     -0.00 LINEAR  3.6877E-03   -167.67  0.0000E+00      0.00
  120.00      0.00      0.37  -999.99     0.37      0.0000     -0.00 LINEAR  3.5473E-03   -169.76  0.0000E+00      0.00
  124.00      0.00     -0.02  -999.99    -0.02      0.0000     -0.00 LINEAR  3.3897E-03   -171.90  0.0000E+00      0.00
  128.00      0.00     -0.48  -999.99    -0.48      0.0000     -0.00 LINEAR  3.2159E-03   -174.08  0.0000E+00      0.00
  132.00      0.00     -1.01  -999.99    -1.01      0.0000     -0.00 LINEAR  3.0269E-03   -176.29  0.0000E+00      0.00
  136.00      0.00     -1.61  -999.99    -1.61      0.0000     -0.00 LINEAR  2.8238E-03   -178.52  0.0000E+00      0.00
  140.00      0.00     -2.30  -999.99    -2.30      0.0000     -0.00 LINEAR  2.6078E-03    179.24  0.0000E+00      0.00
  144.00      0.00     -3.10  -999.99    -3.10      0.0000     -0.00 LINEAR  2.3801E-03    177.00  0.0000E+00      0.00
  148.00      0.00     -4.01  -999.99    -4.01      0.0000     -0.00 LINEAR  2.1418E-03    174.77  0.0000E+00      0.00
  152.00      0.00     -5.08  -999.99    -5.08      0.0000     -0.00 LINEAR  1.8943E-03    172.57  0.0000E+00      0.00
  156.00      0.00     -6.34  -999.99    -6.34      0.0000     -0.00 LINEAR  1.6386E-03    170.40  0.0000E+00      0.00
  160.00      0.00     -7.86  -999.99    -7.86      0.0000     -0.00 LINEAR  1.3760E-03    168.28  0.0000E+00      0.00
  164.00      0.00     -9.74  -999.99    -9.74      0.0000     -0.00 LINEAR  1.1076E-03    166.21  0.0000E+00      0.00
  168.00      0.00    -12.20  -999.99   -12.20      0.0000     -0.00 LINEAR  8.3470E-04    164.21  0.0000E+00      0.00
  172.00      0.00    -15.69  -999.99   -15.69      0.0000     -0.00 LINEAR  5.5836E-04    162.28  0.0000E+00      0.00
  176.00      0.00    -21.69  -999.99   -21.69      0.0000     -0.00 LINEAR  2.7975E-04    160.43  0.0000E+00      0.00
  180.00      0.00   -999.99  -999.99  -999.99      0.0000      0.00         4.0927E-14    -21.32  0.0000E+00      0.00
    0.00      4.00   -999.99  -999.99  -999.99      0.0000      0.00         0.0000E+00      0.00  0.0000E+00      0.00
    4.00      4.00    -21.68  -999.99   -21.68      0.0000     -0.00 LINEAR  2.8029E-04   -157.84  0.0000E+00      0.00
    8.00      4.00    -15.67  -999.99   -15.67      0.0000     -0.00 LINEAR  5.5944E-04   -156.30  0.0000E+00      0.00
   12.00      4.00    -12.18  -999.99   -12.18      0.0000     -0.00 LINEAR  8.3629E-04   -154.88  0.0000E+00      0.00
   16.00      4.00     -9.72  -999.99    -9.72      0.0000     -0.00 LINEAR  1.1097E-03   -153.58  0.0000E+00      0.00
   20.00      4.00     -7.84  -999.99    -7.84      0.0000     -0.00 LINEAR  1.3785E-03   -152.41  0.0000E+00      0.00
   24.00      4.00     -6.32  -999.99    -6.32      0.0000     -0.00 LINEAR  1.6415E-03   -151.38  0.0000E+00      0.00
   28.00      4.00     -5.06  -999.99    -5.06      0.0000     -0.00 LINEAR  1.8975E-03   -150.49  0.0000E+00      0.00
   32.00      4.00     -4.00  -999.99    -4.00      0.0000     -0.00 LINEAR  2.1453E-03   -149.75  0.0000E+00      0.00
   36.00      4.00     -3.08  -999.99    -3.08      0.0000     -0.00 LINEAR  2.3838E-03   -149.15  0.0000E+00      0.00
   40.00      4.00     -2.29  -999.99    -2.29      0.0000     -0.00 LINEAR  2.6117E-03   -148.71  0.0000E+00      0.00
   44.00      4.00     -1.60  -999.99    -1.60      0.0000     -0.00 LINEAR  2.8277E-03   -148.42  0.0000E+00      0.00
   48.00      4.00     -1.00  -999.99    -1.00      0.0000     -0.00 LINEAR  3.0308E-03   -148.29  0.0000E+00      0.00
   52.00      4.00     -0.47  -999.99    -0.47      0.0000     -0.00 LINEAR  3.2197E-03   -148.32  0.0000E+00      0.00
   56.00      4.00     -0.01  -999.99    -0.01      0.0000     -0.00 LINEAR  3.3934E-03   -148.50  0.0000E+00      0.00
   60.00      4.00      0.38  -999.99     0.38      0.0000     -0.00 LINEAR  3.5507E-03   -148.84  0.0000E+00      0.00
   64.00      4.00      0.71  -999.99     0.71      0.0000     -0.00 LINEAR  3.6908E-03   -149.33  0.0000E+00      0.00
   68.00      4.00      1.00  -999.99     1.00      0.0000     -0.00 LINEAR  3.8126E-03   -149.98  0.0000E+00      0.00
   72.00      4.00      1.23  -999.99     1.23      0.0000     -0.00 LINEAR  3.9154E-03   -150.77  0.0000E+00      0.00
   76.00      4.00      1.41  -999.99     1.41      0.0000     -0.00 LINEAR  3.9984E-03   -151.71  0.0000E+00      0.00
   80.00      4.00      1.55  -999.99     1.55      0.0000     -0.00 LINEAR  4.0611E-03   -152.79  0.0000E+00      0.00
   84.00      4.00      1.63  -999.99     1.63      0.0000     -0.00 LINEAR  4.1031E-03   -154.00  0.0000E+00      0.00
   88.00      4.00      1.68  -999.99     1.68      0.0000     -0.00 LINEAR  4.1240E-03   -155.35  0.0000E+00      0.00
   92.00      4.00      1.68  -999.99     1.68      0.0000     -0.00 LINEAR  4.1237E-03   -156.81  0.0000E+00      0.00
   96.00      4.00      1.63  -999.99     1.63      0.0000     -0.00 LINEAR  4.1022E-03   -158.39  0.0000E+00      0.00
  100.00      4.00      1.54  -999.99     1.54      0.0000     -0.00 LINEAR  4.0597E-03   -160.08  0.0000E+00      0.00
  104.00      4.00      1.41  -999.99     1.41      0.0000     -0.00 LINEAR  3.9965E-03   -161.86  0.0000E+00      0.00
  108.00      4.00      1.22  -999.99     1.22      0.0000     -0.00 LINEAR  3.9130E-03   -163.74  0.0000E+00      0.00
  112.00      4.00      0.99  -999.99     0.99      0.0000     -0.00 LINEAR  3.8098E-03   -165.69  0.0000E+00      0.00
  116.00      4.00      0.71  -999.99     0.71      0.0000     -0.00 LINEAR  3.6877E-03   -167.72  0.0000E+00      0.00
  120.00      4.00      0.37  -999.99     0.37      0.0000     -0.00 LINEAR  3.5473E-03   -169.81  0.0000E+00      0.00
  124.00      4.00     -0.02  -999.99    -0.02      0.0000     -0.00 LINEAR  3.3897E-03   -171.95  0.0000E+00      0.00
  128.00      4.00     -0.48  -999.99    -0.48      0.0000     -0.00 LINEAR  3.2159E-03   -174.13  0.0000E+00      0.00
  132.00      4.00     -1.01  -999.99    -1.01      0.0000     -0.00 LINEAR  3.0269E-03   -176.34  0.0000E+00      0.00
  136.00      4.00     -1.61  -999.99    -1.61      0.0000     -0.00 LINEAR  2.8238E-03   -178.56  0.0000E+00      0.00
  140.00      4.00     -2.30  -999.99    -2.30      0.0000     -0.00 LINEAR  2.6078E-03    179.20  0.0000E+00      0.00
  144.00      4.00     -3.10  -999.99    -3.10      0.0000     -0.00 LINEAR  2.3801E-03    176.96  0.0000E+00      0.00
  148.00      4.00     -4.01  -999.99    -4.01      0.0000     -0.00 LINEAR  2.1418E-03    174.74  0.0000E+00      0.00
  152.00      4.00     -5.08  -999.99    -5.08      0.0000     -0.00 LINEAR  1.8943E-03    172.54  0.0000E+00      0.00
  156.00      4.00     -6.34  -999.99    -6.34      0.0000     -0.00 LINEAR  1.6386E-03    170.38  0.0000E+00      0.00
  160.00      4.00     -7.86  -999.99    -7.86      0.0000     -0.00 LINEAR  1.3760E-03    168.26  0.0000E+00      0.00
  164.00      4.00     -9.74  -999.99    -9.74      0.0000     -0.00 LINEAR  1.1076E-03    166.20  0.0000E+00      0.00
  168.00      4.00    -12.20  -999.99   -12.20      0.0000     -0.00 LINEAR  8.3470E-04    164.20  0.0000E+00      0.00
  172.00      4.00    -15.69  -999.99   -15.69      0.0000     -0.00 LINEAR  5.5836E-04    162.27  0.0000E+00      0.00
  176.00      4.00    -21.69  -999.99   -21.69      0.0000     -0.00 LINEAR  2.7975E-04    160.43  0.0000E+00      0.00
  180.00      4.00   -999.99  -999.99  -999.99      0.0000      0.00         4.0927E-14    -21.32  0.0000E+00      0.00
    0.00      8.00   -999.99  -999.99  -999.99      0.0000      0.00         0.0000E+00      0.00  0.0000E+00      0.00
    4.00      8.00    -21.68  -999.99   -21.68      0.0000     -0.00 LINEAR  2.8029E-04   -157.85  0.0000E+00      0.00
    8.00      8.00    -15.67  -999.99   -15.67      0.0000     -0.00 LINEAR  5.5944E-04   -156.32  0.0000E+00      0.00
   12.00      8.00    -12.18  -999.99   -12.18      0.0000     -0.00 LINEAR  8.3629E-04   -154.91  0.0000E+00      0.00
   16.00      8.00     -9.72  -999.99    -9.72      0.0000     -0.00 LINEAR  1.1097E-03   -153.63  0.0000E+00      0.00
   20.00      8.00     -7.84  -999.99    -7.84      0.0000     -0.00 LINEAR  1.3785E-03   -152.47  0.0000E+00      0.00
   24.00      8.00     -6.32  -999.99    -6.32      0.0000     -0.00 LINEAR  1.6415E-03   -151.45  0.0000E+00      0.00
   28.00      8.00     -5.06  -999.99    -5.06      0.0000     -0.00 LINEAR  1.8975E-03   -150.58  0.0000E+00      0.00
   32.00      8.00     -4.00  -999.99    -4.00      0.0000     -0.00 LINEAR  2.1453E-03   -149.84  0.0000E+00      0.00
   36.00      8.00     -3.08  -999.99    -3.08      0.0000     -0.00 LINEAR  2.3838E-03   -149.26  0.0000E+00      0.00
   40.00      8.00     -2.29  -999.99    -2.29      0.0000     -0.00 LINEAR  2.6117E-03   -148.83  0.0000E+00      0.00
   44.00      8.00     -1.60  -999.99    -1.60      0.0000     -0.00 LINEAR  2.8277E-03   -148.55  0.0000E+00      0.00
   48.00      8.00     -1.00  -999.99    -1.00      0.0000     -0.00 LINEAR  3.0308E-03   -148.43  0.0000E+00      0.00
   52.00      8.00     -0.47  -999.99    -0.47      0.0000     -0.00 LINEAR  3.2197E-03   -148.46  0.0000E+00      0.00
   56.00      8.00     -0.01  -999.99    -0.01      0.0000     -0.00 LINEAR  3.3934E-03   -148.65  0.0000E+00      0.00
   60.00      8.00      0.38  -999.99     0.38      0.0000     -0.00 LINEAR  3.5507E-03   -148.99  0.0000E+00      0.00
   64.00      8.00      0.71  -999.99     0.71      0.0000     -0.00 LINEAR  3.6908E-03   -149.49  0.0000E+00      0.00
   68.00      8.00      1.00  -999.99     1.00      0.0000     -0.00 LINEAR  3.8126E-03   -150.14  0.0000E+00      0.00
   72.00      8.00      1.23  -999.99     1.23      0.0000     -0.00 LINEAR  3.9154E-03   -150.94  0.0000E+00      0.00
   76.00      8.00      1.41  -999.99     1.41      0.0000     -0.00 LINEAR  3.9984E-03   -151.88  0.0000E+00      0.00
   80.00      8.00      1.55  -999.99     1.55      0.0000     -0.00 LINEAR  4.0611E-03   -152.97  0.0000E+00      0.00
   84.00      8.00      1.63  -999.99     1.63      0.0000     -0.00 LINEAR  4.1031E-03   -154.18  0.0000E+00      0.00
   88.00      8.00      1.68  -999.99     1.68      0.0000     -0.00 LINEAR  4.1240E-03   -155.52  0.0000E+00      0.00
   92.00      8.00      1.68  -999.99     1.68      0.0000     -0.00 LINEAR  4.1237E-03   -156.99  0.0000E+00      0.00
   96.00      8.00      1.63  -999.99     1.63      0.0000     -0.00 LINEAR  4.1022E-03   -158.57  0.0000E+00      0.00
  100.00      8.00      1.54  -999.99     1.54      0.0000     -0.00 LINEAR  4.0597E-03   -160.25  0.0000E+00      0.00
  104.00      8.00      1.41  -999.99     1.41      0.0000     -0.00 LINEAR  3.9965E-03   -162.04  0.0000E+00      0.00
  108.00      8.00      1.22  -999.99     1.22      0.0000     -0.00 LINEAR  3.9130E-03   -163.91  0.0000E+00      0.00
  112.00      8.00      0.99  -999.99     0.99      0.0000     -0.00 LINEAR  3.8098E-03   -165.86  0.0000E+00      0.00
  116.00      8.00      0.71  -999.99     0.71      0.0000     -0.00 LINEAR  3.6877E-03   -167.88  0.0000E+00      0.00
  120.00      8.00      0.37  -999.99     0.37      0.0000     -0.00 LINEAR  3.5473E-03   -169.96  0.0000E+00      0.00
  124.00      8.00     -0.02  -999.99    -0.02      0.0000     -0.00 LINEAR  3.3897E-03   -172.09  0.0000E+00      0.00
  128.00      8.00     -0.48  -999.99    -0.48      0.0000     -0.00 LINEAR  3.2159E-03   -174.27  0.0000E+00      0.00
  132.00      8.00     -1.01  -999.99    -1.01      0.0000     -0.00 LINEAR  3.0269E-03   -176.47  0.0000E+00      0.00
  136.00      8.00     -1.61  -999.99    -1.61      0.0000     -0.00 LINEAR  2.8238E-03   -178.69  0.0000E+00      0.00
  140.00      8.00     -2.30  -999.99    -2.30      0.0000     -0.00 LINEAR  2.6078E-03    179.08  0.0000E+00      0.00
  144.00      8.00     -3.10  -999.99    -3.10      0.0000     -0.00 LINEAR  2.3801E-03    176.86  0.0000E+00      0.00
  148.00      8.00     -4.01  -999.99    -4.01      0.0000     -0.00 LINEAR  2.1418E-03    174.65  0.0000E+00      0.00
  152.00      8.00     -5.08  -999.99    -5.08      0.0000     -0.00 LINEAR  1.8943E-03    172.46  0.0000E+00      0.00
  156.00      8.00     -6.34  -999.99    -6.34      0.0000     -0.00 LINEAR  1.6386E-03    170.31  0.0000E+00      0.00
  160.00      8.00     -7.86  -999.99    -7.86      0.0000     -0.00 LINEAR  1.3760E-03    168.20  0.0000E+00      0.00
  164.00      8.00     -9.74  -999.99    -9.74      0.0000     -0.00 LINEAR  1.1076E-03    166.15  0.0000E+00      0.00
  168.00      8.00    -12.20  -999.99   -12.20      0.0000     -0.00 LINEAR  8.3470E-04    164.16  0.0000E+00      0.00
  172.00      8.00    -15.69  -999.99   -15.69      0.0000     -0.00 LINEAR  5.5836E-04    162.25  0.0000E+00      0.00
  176.00      8.00    -21.69  -999.99   -21.69      0.0000     -0.00 LINEAR  2.7975E-04    160.42  0.0000E+00      0.00
  180.00      8.00   -999.99  -999.99  -999.99      0.0000      0.00         4.0927E-14    -21.32  0.0000E+00      0.00
    0.00     12.00   -999.99  -999.99  -999.99      0.0000      0.00         0.0000E+00      0.00  0.0000E+00      0.00
    4.00     12.00    -21.68  -999.99   -21.68      0.0000     -0.00 LINEAR  2.8029E-04   -157.87  0.0000E+00      0.00
    8.00     12.00    -15.67  -999.99   -15.67      0.0000     -0.00 LINEAR  5.5944E-04   -156.36  0.0000E+00      0.00
   12.00     12.00    -12.18  -999.99   -12.18      0.0000     -0.00 LINEAR  8.3629E-04   -154.98  0.0000E+00      0.00
   16.00     12.00     -9.72  -999.99    -9.72      0.0000     -0.00 LINEAR  1.1097E-03   -153.71  0.0000E+00      0.00
   20.00     12.00     -7.84  -999.99    -7.84      0.0000     -0.00 LINEAR  1.3785E-03   -152.58  0.0000E+00      0.00
   24.00     12.00     -6.32  -999.99    -6.32      0.0000     -0.00 LINEAR  1.6415E-03   -151.58  0.0000E+00      0.00
   28.00     12.00     -5.06  -999.99    -5.06      0.0000     -0.00 LINEAR  1.8975E-03   -150.72  0.0000E+00      0.00
   32.00     12.00     -4.00  -999.99    -4.00      0.0000     -0.00 LINEAR  2.1453E-03   -150.00  0.0000E+00      0.00
   36.00     12.00     -3.08  -999.99    -3.08      0.0000     -0.00 LINEAR  2.3838E-03   -149.43  0.0000E+00      0.00
   40.00     12.00     -2.29  -999.99    -2.29      0.0000     -0.00 LINEAR  2.6117E-03   -149.02  0.0000E+00      0.00
   44.00     12.00     -1.60  -999.99    -1.60      0.0000     -0.00 LINEAR  2.8277E-03   -148.75  0.0000E+00      0.00
   48.00     12.00     -1.00  -999.99    -1.00      0.0000     -0.00 LINEAR  3.0308E-03   -148.65  0.0000E+00      0.00
   52.00     12.00     -0.47  -999.99    -0.47      0.0000     -0.00 LINEAR  3.2197E-03   -148.69  0.0000E+00      0.00
   56.00     12.00     -0.01  -999.99    -0.01      0.0000     -0.00 LINEAR  3.3934E-03   -148.89  0.0000E+00      0.00
   60.00     12.00      0.38  -999.99     0.38      0.0000     -0.00 LINEAR  3.5507E-03   -149.25  0.0000E+00      0.00
   64.00     12.00      0.71  -999.99     0.71      0.0000     -0.00 LINEAR  3.6908E-03   -149.76  0.0000E+00      0.00
   68.00     12.00      1.00  -999.99     1.00      0.0000     -0.00 LINEAR  3.8126E-03   -150.42  0.0000E+00      0.00
   72.00     12.00      1.23  -999.99     1.23      0.0000     -0.00 LINEAR  3.9154E-03   -151.22  0.0000E+00      0.00
   76.00     12.00      1.41  -999.99     1.41      0.0000     -0.00 LINEAR  3.9984E-03   -152.17  0.0000E+00      0.00
   80.00     12.00      1.55  -999.99     1.55      0.0000     -0.00 LINEAR  4.0611E-03   -153.26  0.0000E+00      0.00
   84.00     12.00      1.63  -999.99     1.63      0.0000     -0.00 LINEAR  4.1031E-03   -154.47  0.0000E+00      0.00
   88.00     12.00      1.68  -999.99     1.68      0.0000     -0.00 LINEAR  4.1240E-03   -155.82  0.0000E+00      0.00
   92.00     12.00      1.68  -999.99     1.68      0.0000     -0.00 LINEAR  4.1237E-03   -157.28  0.0000E+00      0.00
   96.00     12.00      1.63  -999.99     1.63      0.0000     -0.00 LINEAR  4.1022E-03   -158.86  0.0000E+00      0.00
  100.00     12.00      1.54  -999.99     1.54      0.0000     -0.00 LINEAR  4.0597E-03   -160.54  0.0000E+00      0.00
  104.00     12.00      1.41  -999.99     1.41      0.0000     -0.00 LINEAR  3.9965E-03   -162.32  0.0000E+00      0.00
  108.00     12.00      1.22  -999.99     1.22      0.0000     -0.00 LINEAR  3.9130E-03   -164.19  0.0000E+00      0.00
  112.00     12.00      0.99  -999.99     0.99      0.0000     -0.00 LINEAR  3.8098E-03   -166.13  0.0000E+00      0.00
  116.00     12.00      0.71  -999.99     0.71      0.0000     -0.00 LINEAR  3.6877E-03   -168.15  0.0000E+00      0.00
  120.00     12.00      0.37  -999.99     0.37      0.0000     -0.00 LINEAR  3.5473E-03   -170.22  0.0000E+00      0.00
  124.00     12.00     -0.02  -999.99    -0.02      0.0000     -0.00 LINEAR  3.3897E-03   -172.34  0.0000E+00      0.00
  128.00     12.00     -0.48  -999.99    -0.48      0.0000     -0.00 LINEAR  3.2159E-03   -174.50  0.0000E+00      0.00
  132.00     12.00     -1.01  -999.99    -1.01      0.0000     -0.00 LINEAR  3.0269E-03   -176.69  0.0000E+00      0.00
  136.00     12.00     -1.61  -999.99    -1.61      0.0000     -0.00 LINEAR  2.8238E-03   -178.89  0.0000E+00      0.00
  140.00     12.00     -2.30  -999.99    -2.30      0.0000     -0.00 LINEAR  2.6078E-03    178.89  0.0000E+00      0.00
  144.00     12.00     -3.10  -999.99    -3.10      0.0000     -0.00 LINEAR  2.3801E-03    176.68  0.0000E+00      0.00
  148.00     12.00     -4.01  -999.99    -4.01      0.0000     -0.00 LINEAR  2.1418E-03    174.49  0.0000E+00      0.00
  152.00     12.00     -5.08  -999.99    -5.08      0.0000     -0.00 LINEAR  1.8943E-03    172.32  0.0000E+00      0.00
  156.00     12.00     -6.34  -999.99    -6.34      0.0000     -0.00 LINEAR  1.6386E-03    170.19  0.0000E+00      0.00
  160.00     12.00     -7.86  -999.99    -7.86      0.0000     -0.00 LINEAR  1.3760E-03    168.10  0.0000E+00      0.00
  164.00     12.00     -9.74  -999.99    -9.74      0.0000     -0.00 LINEAR  1.1076E-03    166.06  0.0000E+00      0.00
  168.00     12.00    -12.20  -999.99   -12.20      0.0000     -0.00 LINEAR  8.3470E-04    164.10  0.0000E+00      0.00
  172.00     12.00    -15.69  -999.99   -15.69      0.0000     -0.00 LINEAR  5.5836E-04    162.20  0.0000E+00      0.00
  176.00     12.00    -21.69  -999.99   -21.69      0.0000     -0.00 LINEAR  2.7975E-04    160.40  0.0000E+00      0.00
  180.00     12.00   -999.99  -999.99  -999.99      0.0000      0.00         4.0927E-14    -21.32  0.0000E+00      0.00
    0.00     16.00   -999.99  -999.99  -999.99      0.0000      0.00         0.0000E+00      0.00  0.0000E+00      0.00
    4.00     16.00    -21.68  -999.99   -21.68      0.0000     -0.00 LINEAR  2.8029E-04   -157.90  0.0000E+00      0.00
    8.00     16.00    -15.67  -999.99   -15.67      0.0000     -0.00 LINEAR  5.5944E-04   -156.42  0.0000E+00      0.00
   12.00     16.00    -12.18  -999.99   -12.18      0.0000     -0.00 LINEAR  8.3629E-04   -155.06  0.0000E+00      0.00
   16.00     16.00     -9.72  -999.99    -9.72      0.0000     -0.00 LINEAR  1.1097E-03   -153.82  0.0000E+00      0.00
   20.00     16.00     -7.84  -999.99    -7.84      0.0000     -0.00 LINEAR  1.3785E-03   -152.72  0.0000E+00      0.00
   24.00     16.00     -6.32  -999.99    -6.32      0.0000     -0.00 LINEAR  1.6415E-03   -151.74  0.0000E+00      0.00
   28.00     16.00     -5.06  -999.99    -5.06      0.0000     -0.00 LINEAR  1.8975E-03   -150.91  0.0000E+00      0.00
   32.00     16.00     -4.00  -999.99    -4.00      0.0000     -0.00 LINEAR  2.1453E-03   -150.22  0.0000E+00      0.00
   36.00     16.00     -3.08  -999.99    -3.08      0.0000     -0.00 LINEAR  2.3838E-03   -149.67  0.0000E+00      0.00
   40.00     16.00     -2.29  -999.99    -2.29      0.0000     -0.00 LINEAR  2.6117E-03   -149.28  0.0000E+00      0.00
   44.00     16.00     -1.60  -999.99    -1.60      0.0000     -0.00 LINEAR  2.8277E-03   -149.04  0.0000E+00      0.00
   48.00     16.00     -1.00  -999.99    -1.00      0.0000     -0.00 LINEAR  3.0308E-03   -148.95  0.0000E+00      0.00
   52.00     16.00     -0.47  -999.99    -0.47      0.0000     -0.00 LINEAR  3.2197E-03   -149.02  0.0000E+00      0.00
   56.00     16.00     -0.01  -999.99    -0.01      0.0000     -0.00 LINEAR  3.3934E-03   -149.24  0.0000E+00      0.00
   60.00     16.00      0.38  -999.99     0.38      0.0000     -0.00 LINEAR  3.5507E-03   -149.61  0.0000E+00      0.00
   64.00     16.00      0.71  -999.99     0.71      0.0000     -0.00 LINEAR  3.6908E-03   -150.13  0.0000E+00      0.00
   68.00     16.00      1.00  -999.99     1.00      0.0000     -0.00 LINEAR  3.8126E-03   -150.80  0.0000E+00      0.00
   72.00     16.00      1.23  -999.99     1.23      0.0000     -0.00 LINEAR  3.9154E-03   -151.61  0.0000E+00      0.00
   76.00     16.00      1.41  -999.99     1.41      0.0000     -0.00 LINEAR  3.9984E-03   -152.57  0.0000E+00      0.00
   80.00     16.00      1.55  -999.99     1.55      0.0000     -0.00 LINEAR  4.0611E-03   -153.66  0.0000E+00      0.00
   84.00     16.00      1.63  -999.99     1.63      0.0000     -0.00 LINEAR  4.1031E-03   -154.88  0.0000E+00      0.00
   88.00     16.00      1.68  -999.99     1.68      0.0000     -0.00 LINEAR  4.1240E-03   -156.23  0.0000E+00      0.00
   92.00     16.00      1.68  -999.99     1.68      0.0000     -0.00 LINEAR  4.1237E-03   -157.70  0.0000E+00      0.00
   96.00     16.00      1.63  -999.99     1.63      0.0000     -0.00 LINEAR  4.1022E-03   -159.27  0.0000E+00      0.00
  100.00     16.00      1.54  -999.99     1.54      0.0000     -0.00 LINEAR  4.0597E-03   -160.95  0.0000E+00      0.00
  104.00     16.00      1.41  -999.99     1.41      0.0000     -0.00 LINEAR  3.9965E-03   -162.72  0.0000E+00      0.00
  108.00     16.00      1.22  -999.99     1.22      0.0000     -0.00 LINEAR  3.9130E-03   -164.58  0.0000E+00      0.00
  112.00     16.00      0.99  -999.99     0.99      0.0000     -0.00 LINEAR  3.8098E-03   -166.51  0.0000E+00      0.00
  116.00     16.00      0.71  -999.99     0.71      0.0000     -0.00 LINEAR  3.6877E-03   -168.52  0.0000E+00      0.00
  120.00     16.00      0.37  -999.99     0.37      0.0000     -0.00 LINEAR  3.5473E-03   -170.58  0.0000E+00      0.00
  124.00     16.00     -0.02  -999.99    -0.02      0.0000     -0.00 LINEAR  3.3897E-03   -172.68  0.0000E+00      0.00
  128.00     16.00     -0.48  -999.99    -0.48      0.0000     -0.00 LINEAR  3.2159E-03   -174.82  0.0000E+00      0.00
  132.00     16.00     -1.01  -999.99    -1.01      0.0000     -0.00 LINEAR  3.0269E-03   -176.99  0.0000E+00      0.00
  136.00     16.00     -1.61  -999.99    -1.61      0.0000     -0.00 LINEAR  2.8238E-03   -179.18  0.0000E+00      0.00
  140.00     16.00     -2.30  -999.99    -2.30      0.0000     -0.00 LINEAR  2.6078E-03    178.63  0.0000E+00      0.00
  144.00     16.00     -3.10  -999.99    -3.10      0.0000     -0.00 LINEAR  2.3801E-03    176.44  0.0000E+00      0.00
  148.00     16.00     -4.01  -999.99    -4.01      0.0000     -0.00 LINEAR  2.1418E-03    174.27  0.0000E+00      0.00
  152.00     16.00     -5.08  -999.99    -5.08      0.0000     -0.00 LINEAR  1.8943E-03    172.13  0.0000E+00      0.00
  156.00     16.00     -6.34  -999.99    -6.34      0.0000     -0.00 LINEAR  1.6386E-03    170.02  0.0000E+00      0.00
  160.00     16.00     -7.86  -999.99    -7.86      0.0000     -0.00 LINEAR  1.3760E-03    167.96  0.0000E+00      0.00
  164.00     16.00     -9.74  -999.99    -9.74      0.0000     -0.00 LINEAR  1.1076E-03    165.95  0.0000E+00      0.00
  168.00     16.00    -12.20  -999.99   -12.20      0.0000     -0.00 LINEAR  8.3470E-04    164.01  0.0000E+00      0.00
  172.00     16.00    -15.69  -999.99   -15.69      0.0000     -0.00 LINEAR  5.5836E-04    162.15  0.0000E+00      0.00
  176.00     16.00    -21.69  -999.99   -21.69      0.0000     -0.00 LINEAR  2.7975E-04    160.37  0.0000E+00      0.00
  180.00     16.00   -999.99  -999.99  -999.99      0.0000      0.00         4.0927E-14    -21.32  0.0000E+00      0.00
    0.00     20.00   -999.99  -999.99  -999.99      0.0000      0.00         0.0000E+00      0.00  0.0000E+00      0.00
    4.00     20.00    -21.68  -999.99   -21.68      0.0000     -0.00 LINEAR  2.8029E-04   -157.94  0.0000E+00      0.00
    8.00     20.00    -15.67  -999.99   -15.67      0.0000     -0.00 LINEAR  5.5944E-04   -156.50  0.0000E+00      0.00
   12.00     20.00    -12.18  -999.99   -12.18      0.0000     -0.00 LINEAR  8.3629E-04   -155.17  0.0000E+00      0.00
   16.00     20.00     -9.72  -999.99    -9.72      0.0000     -0.00 LINEAR  1.1097E-03   -153.97  0.0000E+00      0.00
   20.00     20.00     -7.84  -999.99    -7.84      0.0000     -0.00 LINEAR  1.3785E-03   -152.90  0.0000E+00      0.00
   24.00     20.00     -6.32  -999.99    -6.32      0.0000     -0.00 LINEAR  1.6415E-03   -151.96  0.0000E+00      0.00
   28.00     20.00     -5.06  -999.99    -5.06      0.0000     -0.00 LINEAR  1.8975E-03   -151.16  0.0000E+00      0.00
   32.00     20.00     -4.00  -999.99    -4.00      0.0000     -0.00 LINEAR  2.1453E-03   -150.50  0.0000E+00      0.00
   36.00     20.00     -3.08  -999.99    -3.08      0.0000     -0.00 LINEAR  2.3838E-03   -149.98  0.0000E+00      0.00
   40.00     20.00     -2.29  -999.99    -2.29      0.0000     -0.00 LINEAR  2.6117E-03   -149.62  0.0000E+00      0.00
   44.00     20.00     -1.60  -999.99    -1.60      0.0000     -0.00 LINEAR  2.8277E-03   -149.41  0.0000E+00      0.00
   48.00     20.00     -1.00  -999.99    -1.00      0.0000     -0.00 LINEAR  3.0308E-03   -149.34  0.0000E+00      0.00
   52.00     20.00     -0.47  -999.99    -0.47      0.0000     -0.00 LINEAR  3.2197E-03   -149.43  0.0000E+00      0.00
   56.00     20.00     -0.01  -999.99    -0.01      0.0000     -0.00 LINEAR  3.3934E-03   -149.67  0.0000E+00      0.00
   60.00     20.00      0.38  -999.99     0.38      0.0000     -0.00 LINEAR  3.5507E-03   -150.06  0.0000E+00      0.00
   64.00     20.00      0.71  -999.99     0.71      0.0000     -0.00 LINEAR  3.6908E-03   -150.60  0.0000E+00      0.00
   68.00     20.00      1.00  -999.99     1.00      0.0000     -0.00 LINEAR  3.8126E-03   -151.29  0.0000E+00      0.00
   72.00     20.00      1.23  -999.99     1.23      0.0000     -0.00 LINEAR  3.9154E-03   -152.12  0.0000E+00      0.00
   76.00     20.00      1.41  -999.99     1.41      0.0000     -0.00 LINEAR  3.9984E-03   -153.08  0.0000E+00      0.00
   80.00     20.00      1.55  -999.99     1.55      0.0000     -0.00 LINEAR  4.0611E-03   -154.18  0.0000E+00      0.00
   84.00     20.00      1.63  -999.99     1.63      0.0000     -0.00 LINEAR  4.1031E-03   -155.41  0.0000E+00      0.00
   88.00     20.00      1.68  -999.99     1.68      0.0000     -0.00 LINEAR  4.1240E-03   -156.76  0.0000E+00      0.00
   92.00     20.00      1.68  -999.99     1.68      0.0000     -0.00 LINEAR  4.1237E-03   -158.22  0.0000E+00      0.00
   96.00     20.00      1.63  -999.99     1.63      0.0000     -0.00 LINEAR  4.1022E-03   -159.79  0.0000E+00      0.00
  100.00     20.00      1.54  -999.99     1.54      0.0000     -0.00 LINEAR  4.0597E-03   -161.47  0.0000E+00      0.00
  104.00     20.00      1.41  -999.99     1.41      0.0000     -0.00 LINEAR  3.9965E-03   -163.23  0.0000E+00      0.00
  108.00     20.00      1.22  -999.99     1.22      0.0000     -0.00 LINEAR  3.9130E-03   -165.08  0.0000E+00      0.00
  112.00     20.00      0.99  -999.99     0.99      0.0000     -0.00 LINEAR  3.8098E-03   -167.00  0.0000E+00      0.00
  116.00     20.00      0.71  -999.99     0.71      0.0000     -0.00 LINEAR  3.6877E-03   -168.99  0.0000E+00      0.00
  120.00     20.00      0.37  -999.99     0.37      0.0000     -0.00 LINEAR  3.5473E-03   -171.03  0.0000E+00      0.00
  124.00     20.00     -0.02  -999.99    -0.02      0.0000     -0.00 LINEAR  3.3897E-03   -173.12  0.0000E+00      0.00
  128.00     20.00     -0.48  -999.99    -0.48      0.0000     -0.00 LINEAR  3.2159E-03   -175.24  0.0000E+00      0.00
  132.00     20.00     -1.01  -999.99    -1.01      0.0000     -0.00 LINEAR  3.0269E-03   -177.39  0.0000E+00      0.00
  136.00     20.00     -1.61  -999.99    -1.61      0.0000     -0.00 LINEAR  2.8238E-03   -179.55  0.0000E+00      0.00
  140.00     20.00     -2.30  -999.99    -2.30      0.0000     -0.00 LINEAR  2.6078E-03    178.29  0.0000E+00      0.00
  144.00     20.00     -3.10  -999.99    -3.10      0.0000     -0.00 LINEAR  2.3801E-03    176.13  0.0000E+00      0.00
  148.00     20.00     -4.01  -999.99    -4.01      0.0000     -0.00 LINEAR  2.1418E-03    173.99  0.0000E+00      0.00
  152.00     20.00     -5.08  -999.99    -5.08      0.0000     -0.00 LINEAR  1.8943E-03    171.88  0.0000E+00      0.00
  156.00     20.00     -6.34  -999.99    -6.34      0.0000     -0.00 LINEAR  1.6386E-03    169.80  0.0000E+00      0.00
  160.00     20.00     -7.86  -999.99    -7.86      0.0000     -0.00 LINEAR  1.3760E-03    167.78  0.0000E+00      0.00
  164.00     20.00     -9.74  -999.99    -9.74      0.0000     -0.00 LINEAR  1.1076E-03    165.81  0.0000E+00      0.00
  168.00     20.00    -12.20  -999.99   -12.20      0.0000     -0.00 LINEAR  8.3470E-04    163.90  0.0000E+00      0.00
  172.00     20.00    -15.69  -999.99   -15.69      0.0000     -0.00 LINEAR  5.5836E-04    162.07  0.0000E+00      0.00
  176.00     20.00    -21.69  -999.99   -21.69      0.0000     -0.00 LINEAR  2.7975E-04    160.33  0.0000E+00      0.00
  180.00     20.00   -999.99  -999.99  -999.99      0.0000      0.00         4.0927E-14    -21.32  0.0000E+00      0.00
    0.00     24.00   -999.99  -999.99  -999.99      0.0000      0.00         0.0000E+00      0.00  0.0000E+00      0.00
    4.00     24.00    -21.68  -999.99   -21.68      0.0000     -0.00 LINEAR  2.8029E-04   -157.98  0.0000E+00      0.00
    8.00     24.00    -15.67  -999.99   -15.67      0.0000     -0.00 LINEAR  5.5944E-04   -156.58  0.0000E+00      0.00
   12.00     24.00    -12.18  -999.99   -12.18      0.0000     -0.00 LINEAR  8.3629E-04   -155.30  0.0000E+00      0.00
   16.00     24.00     -9.72  -999.99    -9.72      0.0000     -0.00 LINEAR  1.1097E-03   -154.15  0.0000E+00      0.00
   20.00     24.00     -7.84  -999.99    -7.84      0.0000     -0.00 LINEAR  1.3785E-03   -153.11  0.0000E+00      0.00
   24.00     24.00     -6.32  -999.99    -6.32      0.0000     -0.00 LINEAR  1.6415E-03   -152.22  0.0000E+00      0.00
   28.00     24.00     -5.06  -999.99    -5.06      0.0000     -0.00 LINEAR  1.8975E-03   -151.46  0.0000E+00      0.00
   32.00     24.00     -4.00  -999.99    -4.00      0.0000     -0.00 LINEAR  2.1453E-03   -150.83  0.0000E+00      0.00
   36.00     24.00     -3.08  -999.99    -3.08      0.0000     -0.00 LINEAR  2.3838E-03   -150.36  0.0000E+00      0.00
   40.00     24.00     -2.29  -999.99    -2.29      0.0000     -0.00 LINEAR  2.6117E-03   -150.03  0.0000E+00      0.00
   44.00     24.00     -1.60  -999.99    -1.60      0.0000     -0.00 LINEAR  2.8277E-03   -149.85  0.0000E+00      0.00
   48.00     24.00     -1.00  -999.99    -1.00      0.0000     -0.00 LINEAR  3.0308E-03   -149.82  0.0000E+00      0.00
   52.00     24.00     -0.47  -999.99    -0.47      0.0000     -0.00 LINEAR  3.2197E-03   -149.93  0.0000E+00      0.00
   56.00     24.00     -0.01  -999.99    -0.01      0.0000     -0.00 LINEAR  3.3934E-03   -150.20  0.0000E+00      0.00
   60.00     24.00      0.38  -999.99     0.38      0.0000     -0.00 LINEAR  3.5507E-03   -150.62  0.0000E+00      0.00
   64.00     24.00      0.71  -999.99     0.71      0.0000     -0.00 LINEAR  3.6908E-03   -151.18  0.0000E+00      0.00
   68.00     24.00      1.00  -999.99     1.00      0.0000     -0.00 LINEAR  3.8126E-03   -151.88  0.0000E+00      0.00
   72.00     24.00      1.23  -999.99     1.23      0.0000     -0.00 LINEAR  3.9154E-03   -152.72  0.0000E+00      0.00
   76.00     24.00      1.41  -999.99     1.41      0.0000     -0.00 LINEAR  3.9984E-03   -153.70  0.0000E+00      0.00
   80.00     24.00      1.55  -999.99     1.55      0.0000     -0.00 LINEAR  4.0611E-03   -154.81  0.0000E+00      0.00
   84.00     24.00      1.63  -999.99     1.63      0.0000     -0.00 LINEAR  4.1031E-03   -156.04  0.0000E+00      0.00
   88.00     24.00      1.68  -999.99     1.68      0.0000     -0.00 LINEAR  4.1240E-03   -157.40  0.0000E+00      0.00
   92.00     24.00      1.68  -999.99     1.68      0.0000     -0.00 LINEAR  4.1237E-03   -158.86  0.0000E+00      0.00
   96.00     24.00      1.63  -999.99     1.63      0.0000     -0.00 LINEAR  4.1022E-03   -160.43  0.0000E+00      0.00
  100.00     24.00      1.54  -999.99     1.54      0.0000     -0.00 LINEAR  4.0597E-03   -162.10  0.0000E+00      0.00
  104.00     24.00      1.41  -999.99     1.41      0.0000     -0.00 LINEAR  3.9965E-03   -163.85  0.0000E+00      0.00
  108.00     24.00      1.22  -999.99     1.22      0.0000     -0.00 LINEAR  3.9130E-03   -165.69  0.0000E+00      0.00
  112.00     24.00      0.99  -999.99     0.99      0.0000     -0.00 LINEAR  3.8098E-03   -167.59  0.0000E+00      0.00
  116.00     24.00      0.71  -999.99     0.71      0.0000     -0.00 LINEAR  3.6877E-03   -169.56  0.0000E+00      0.00
  120.00     24.00      0.37  -999.99     0.37      0.0000     -0.00 LINEAR  3.5473E-03   -171.58  0.0000E+00      0.00
  124.00     24.00     -0.02  -999.99    -0.02      0.0000     -0.00 LINEAR  3.3897E-03   -173.65  0.0000E+00      0.00
  128.00     24.00     -0.48  -999.99    -0.48      0.0000     -0.00 LINEAR  3.2159E-03   -175.74  0.0000E+00      0.00
  132.00     24.00     -1.01  -999.99    -1.01      0.0000     -0.00 LINEAR  3.0269E-03   -177.86  0.0000E+00      0.00
  136.00     24.00     -1.61  -999.99    -1.61      0.0000     -0.00 LINEAR  2.8238E-03   -179.99  0.0000E+00      0.00
  140.00     24.00     -2.30  -999.99    -2.30      0.0000     -0.00 LINEAR  2.6078E-03    177.88  0.0000E+00      0.00
  144.00     24.00     -3.10  -999.99    -3.10      0.0000     -0.00 LINEAR  2.3801E-03    175.76  0.0000E+00      0.00
  148.00     24.00     -4.01  -999.99    -4.01      0.0000     -0.00 LINEAR  2.1418E-03    173.65  0.0000E+00      0.00
  152.00     24.00     -5.08  -999.99    -5.08      0.0000     -0.00 LINEAR  1.8943E-03    171.58  0.0000E+00      0.00
  156.00     24.00     -6.34  -999.99    -6.34      0.0000     -0.00 LINEAR  1.6386E-03    169.54  0.0000E+00      0.00
  160.00     24.00     -7.86  -999.99    -7.86      0.0000     -0.00 LINEAR  1.3760E-03    167.56  0.0000E+00      0.00
  164.00     24.00     -9.74  -999.99    -9.74      0.0000     -0.00 LINEAR  1.1076E-03    165.63  0.0000E+00      0.00
  168.00     24.00    -12.20  -999.99   -12.20      0.0000     -0.00 LINEAR  8.3470E-04    163.77  0.0000E+00      0.00
  172.00     24.00    -15.69  -999.99   -15.69      0.0000     -0.00 LINEAR  5.5836E-04    161.99  0.0000E+00      0.00
  176.00     24.00    -21.69  -999.99   -21.69      0.0000     -0.00 LINEAR  2.7975E-04    160.29  0.0000E+00      0.00
  180.00     24.00   -999.99  -999.99  -999.99      0.0000      0.00         4.0927E-14    -21.32  0.0000E+00      0.00
    0.00     28.00   -999.99  -999.99  -999.99      0.0000      0.00         0.0000E+00      0.00  0.0000E+00      0.00
    4.00     28.00    -21.68  -999.99   -21.68      0.0000     -0.00 LINEAR  2.8029E-04   -158.03  0.0000E+00      0.00
    8.00     28.00    -15.67  -999.99   -15.67      0.0000     -0.00 LINEAR  5.5944E-04   -156.69  0.0000E+00      0.00
   12.00     28.00    -12.18  -999.99   -12.18      0.0000     -0.00 LINEAR  8.3629E-04   -155.46  0.0000E+00      0.00
   16.00     28.00     -9.72  -999.99    -9.72      0.0000     -0.00 LINEAR  1.1097E-03   -154.35  0.0000E+00      0.00
   20.00     28.00     -7.84  -999.99    -7.84      0.0000     -0.00 LINEAR  1.3785E-03   -153.37  0.0000E+00      0.00
   24.00     28.00     -6.32  -999.99    -6.32      0.0000     -0.00 LINEAR  1.6415E-03   -152.52  0.0000E+00      0.00
   28.00     28.00     -5.06  -999.99    -5.06      0.0000     -0.00 LINEAR  1.8975E-03   -151.81  0.0000E+00      0.00
   32.00     28.00     -4.00  -999.99    -4.00      0.0000     -0.00 LINEAR  2.1453E-03   -151.23  0.0000E+00      0.00
   36.00     28.00     -3.08  -999.99    -3.08      0.0000     -0.00 LINEAR  2.3838E-03   -150.80  0.0000E+00      0.00
   40.00     28.00     -2.29  -999.99    -2.29      0.0000     -0.00 LINEAR  2.6117E-03   -150.51  0.0000E+00      0.00
   44.00     28.00     -1.60  -999.99    -1.60      0.0000     -0.00 LINEAR  2.8277E-03   -150.37  0.0000E+00      0.00
   48.00     28.00     -1.00  -999.99    -1.00      0.0000     -0.00 LINEAR  3.0308E-03   -150.37  0.0000E+00      0.00
   52.00     28.00     -0.47  -999.99    -0.47      0.0000     -0.00 LINEAR  3.2197E-03   -150.52  0.0000E+00      0.00
   56.00     28.00     -0.01  -999.99    -0.01      0.0000     -0.00 LINEAR  3.3934E-03   -150.82  0.0000E+00      0.00
   60.00     28.00      0.38  -999.99     0.38      0.0000     -0.00 LINEAR  3.5507E-03   -151.26  0.0000E+00      0.00
   64.00     28.00      0.71  -999.99     0.71      0.0000     -0.00 LINEAR  3.6908E-03   -151.85  0.0000E+00      0.00
   68.00     28.00      1.00  -999.99     1.00      0.0000     -0.00 LINEAR  3.8126E-03   -152.57  0.0000E+00      0.00
   72.00     28.00      1.23  -999.99     1.23      0.0000     -0.00 LINEAR  3.9154E-03   -153.43  0.0000E+00      0.00
   76.00     28.00      1.41  -999.99     1.41      0.0000     -0.00 LINEAR  3.9984E-03   -154.42  0.0000E+00      0.00
   80.00     28.00      1.55  -999.99     1.55      0.0000     -0.00 LINEAR  4.0611E-03   -155.54  0.0000E+00      0.00
   84.00     28.00      1.63  -999.99     1.63      0.0000     -0.00 LINEAR  4.1031E-03   -156.79  0.0000E+00      0.00
   88.00     28.00      1.68  -999.99     1.68      0.0000     -0.00 LINEAR  4.1240E-03   -158.14  0.0000E+00      0.00
   92.00     28.00      1.68  -999.99     1.68      0.0000     -0.00 LINEAR  4.1237E-03   -159.61  0.0000E+00      0.00
   96.00     28.00      1.63  -999.99     1.63      0.0000     -0.00 LINEAR  4.1022E-03   -161.17  0.0000E+00      0.00
  100.00     28.00      1.54  -999.99     1.54      0.0000     -0.00 LINEAR  4.0597E-03   -162.83  0.0000E+00      0.00
  104.00     28.00      1.41  -999.99     1.41      0.0000     -0.00 LINEAR  3.9965E-03   -164.58  0.0000E+00      0.00
  108.00     28.00      1.22  -999.99     1.22      0.0000     -0.00 LINEAR  3.9130E-03   -166.40  0.0000E+00      0.00
  112.00     28.00      0.99  -999.99     0.99      0.0000     -0.00 LINEAR  3.8098E-03   -168.29  0.0000E+00      0.00
  116.00     28.00      0.71  -999.99     0.71      0.0000     -0.00 LINEAR  3.6877E-03   -170.23  0.0000E+00      0.00
  120.00     28.00      0.37  -999.99     0.37      0.0000     -0.00 LINEAR  3.5473E-03   -172.23  0.0000E+00      0.00
  124.00     28.00     -0.02  -999.99    -0.02      0.0000     -0.00 LINEAR  3.3897E-03   -174.27  0.0000E+00      0.00
  128.00     28.00     -0.48  -999.99    -0.48      0.0000     -0.00 LINEAR  3.2159E-03   -176.33  0.0000E+00      0.00
  132.00     28.00     -1.01  -999.99    -1.01      0.0000     -0.00 LINEAR  3.0269E-03   -178.41  0.0000E+00      0.00
  136.00     28.00     -1.61  -999.99    -1.61      0.0000     -0.00 LINEAR  2.8238E-03    179.49  0.0000E+00      0.00
  140.00     28.00     -2.30  -999.99    -2.30      0.0000     -0.00 LINEAR  2.6078E-03    177.40  0.0000E+00      0.00
  144.00     28.00     -3.10  -999.99    -3.10      0.0000     -0.00 LINEAR  2.3801E-03    175.32  0.0000E+00      0.00
  148.00     28.00     -4.01  -999.99    -4.01      0.0000     -0.00 LINEAR  2.1418E-03    173.26  0.0000E+00      0.00
  152.00     28.00     -5.08  -999.99    -5.08      0.0000     -0.00 LINEAR  1.8943E-03    171.23  0.0000E+00      0.00
  156.00     28.00     -6.34  -999.99    -6.34      0.0000     -0.00 LINEAR  1.6386E-03    169.24  0.0000E+00      0.00
  160.00     28.00     -7.86  -999.99    -7.86      0.0000     -0.00 LINEAR  1.3760E-03    167.30  0.0000E+00      0.00
  164.00     28.00     -9.74  -999.99    -9.74      0.0000     -0.00 LINEAR  1.1076E-03    165.42  0.0000E+00      0.00
  168.00     28.00    -12.20  -999.99   -12.20      0.0000     -0.00 LINEAR  8.3470E-04    163.61  0.0000E+00      0.00
  172.00     28.00    -15.69  -999.99   -15.69      0.0000     -0.00 LINEAR  5.5836E-04    161.88  0.0000E+00      0.00
  176.00     28.00    -21.69  -999.99   -21.69      0.0000     -0.00 LINEAR  2.7975E-04    160.23  0.0000E+00      0.00
  180.00     28.00   -999.99  -999.99  -999.99      0.0000      0.00         4.0927E-14    -21.32  0.0000E+00      0.00
    0.00     32.00   -999.99  -999.99  -999.99      0.0000      0.00         0.0000E+00      0.00  0.0000E+00      0.00
    4.00     32.00    -21.68  -999.99   -21.68      0.0000     -0.00 LINEAR  2.8029E-04   -158.09  0.0000E+00      0.00
    8.00     32.00    -15.67  -999.99   -15.67      0.0000     -0.00 LINEAR  5.5944E-04   -156.81  0.0000E+00      0.00
   12.00     32.00    -12.18  -999.99   -12.18      0.0000     -0.00 LINEAR  8.3629E-04   -155.64  0.0000E+00      0.00
   16.00     32.00     -9.72  -999.99    -9.72      0.0000     -0.00 LINEAR  1.1097E-03   -154.59  0.0000E+00      0.00
   20.00     32.00     -7.84  -999.99    -7.84      0.0000     -0.00 LINEAR  1.3785E-03   -153.66  0.0000E+00      0.00
   24.00     32.00     -6.32  -999.99    -6.32      0.0000     -0.00 LINEAR  1.6415E-03   -152.87  0.0000E+00      0.00
   28.00     32.00     -5.06  -999.99    -5.06      0.0000     -0.00 LINEAR  1.8975E-03   -152.21  0.0000E+00      0.00
   32.00     32.00     -4.00  -999.99    -4.00      0.0000     -0.00 LINEAR  2.1453E-03   -151.68  0.0000E+00      0.00
   36.00     32.00     -3.08  -999.99    -3.08      0.0000     -0.00 LINEAR  2.3838E-03   -151.30  0.0000E+00      0.00
   40.00     32.00     -2.29  -999.99    -2.29      0.0000     -0.00 LINEAR  2.6117E-03   -151.06  0.0000E+00      0.00
   44.00     32.00     -1.60  -999.99    -1.60      0.0000     -0.00 LINEAR  2.8277E-03   -150.96  0.0000E+00      0.00
   48.00     32.00     -1.00  -999.99    -1.00      0.0000     -0.00 LINEAR  3.0308E-03   -151.00  0.0000E+00      0.00
   52.00     32.00     -0.47  -999.99    -0.47      0.0000     -0.00 LINEAR  3.2197E-03   -151.19  0.0000E+00      0.00
   56.00     32.00     -0.01  -999.99    -0.01      0.0000     -0.00 LINEAR  3.3934E-03   -151.53  0.0000E+00      0.00
   60.00     32.00      0.38  -999.99     0.38      0.0000     -0.00 LINEAR  3.5507E-03   -152.00  0.0000E+00      0.00
   64.00     32.00      0.71  -999.99     0.71      0.0000     -0.00 LINEAR  3.6908E-03   -152.61  0.0000E+00      0.00
   68.00     32.00      1.00  -999.99     1.00      0.0000     -0.00 LINEAR  3.8126E-03   -153.36  0.0000E+00      0.00
   72.00     32.00      1.23  -999.99     1.23      0.0000     -0.00 LINEAR  3.9154E-03   -154.24  0.0000E+00      0.00
   76.00     32.00      1.41  -999.99     1.41      0.0000     -0.00 LINEAR  3.9984E-03   -155.25  0.0000E+00      0.00
   80.00     32.00      1.55  -999.99     1.55      0.0000     -0.00 LINEAR  4.0611E-03   -156.38  0.0000E+00      0.00
   84.00     32.00      1.63  -999.99     1.63      0.0000     -0.00 LINEAR  4.1031E-03   -157.63  0.0000E+00      0.00
   88.00     32.00      1.68  -999.99     1.68      0.0000     -0.00 LINEAR  4.1240E-03   -158.99  0.0000E+00      0.00
   92.00     32.00      1.68  -999.99     1.68      0.0000     -0.00 LINEAR  4.1237E-03   -160.46  0.0000E+00      0.00
   96.00     32.00      1.63  -999.99     1.63      0.0000     -0.00 LINEAR  4.1022E-03   -162.02  0.0000E+00      0.00
  100.00     32.00      1.54  -999.99     1.54      0.0000     -0.00 LINEAR  4.0597E-03   -163.67  0.0000E+00      0.00
  104.00     32.00      1.41  -999.99     1.41      0.0000     -0.00 LINEAR  3.9965E-03   -165.40  0.0000E+00      0.00
  108.00     32.00      1.22  -999.99     1.22      0.0000     -0.00 LINEAR  3.9130E-03   -167.21  0.0000E+00      0.00
  112.00     32.00      0.99  -999.99     0.99      0.0000     -0.00 LINEAR  3.8098E-03   -169.08  0.0000E+00      0.00
  116.00     32.00      0.71  -999.99     0.71      0.0000     -0.00 LINEAR  3.6877E-03   -171.00  0.0000E+00      0.00
  120.00     32.00      0.37  -999.99     0.37      0.0000     -0.00 LINEAR  3.5473E-03   -172.97  0.0000E+00      0.00
  124.00     32.00     -0.02  -999.99    -0.02      0.0000     -0.00 LINEAR  3.3897E-03   -174.97  0.0000E+00      0.00
  128.00     32.00     -0.48  -999.99    -0.48      0.0000     -0.00 LINEAR  3.2159E-03   -177.00  0.0000E+00      0.00
  132.00     32.00     -1.01  -999.99    -1.01      0.0000     -0.00 LINEAR  3.0269E-03   -179.05  0.0000E+00      0.00
  136.00     32.00     -1.61  -999.99    -1.61      0.0000     -0.00 LINEAR  2.8238E-03    178.90  0.0000E+00      0.00
  140.00     32.00     -2.30  -999.99    -2.30      0.0000     -0.00 LINEAR  2.6078E-03    176.85  0.0000E+00      0.00
  144.00     32.00     -3.10  -999.99    -3.10      0.0000     -0.00 LINEAR  2.3801E-03    174.82  0.0000E+00      0.00
  148.00     32.00     -4.01  -999.99    -4.01      0.0000     -0.00 LINEAR  2.1418E-03    172.81  0.0000E+00      0.00
  152.00     32.00     -5.08  -999.99    -5.08      0.0000     -0.00 LINEAR  1.8943E-03    170.83  0.0000E+00      0.00
  156.00     32.00     -6.34  -999.99    -6.34      0.0000     -0.00 LINEAR  1.6386E-03    168.89  0.0000E+00      0.00
  160.00     32.00     -7.86  -999.99    -7.86      0.0000     -0.00 LINEAR  1.3760E-03    167.01  0.0000E+00      0.00
  164.00     32.00     -9.74  -999.99    -9.74      0.0000     -0.00 LINEAR  1.1076E-03    165.19  0.0000E+00      0.00
  168.00     32.00    -12.20  -999.99   -12.20      0.0000     -0.00 LINEAR  8.3470E-04    163.44  0.0000E+00      0.00
  172.00     32.00    -15.69  -999.99   -15.69      0.0000     -0.00 LINEAR  5.5836E-04    161.76  0.0000E+00      0.00
  176.00     32.00    -21.69  -999.99   -21.69      0.0000     -0.00 LINEAR  2.7975E-04    160.17  0.0000E+00      0.00
  180.00     32.00   -999.99  -999.99  -999.99      0.0000      0.00         4.0927E-14    -21.32  0.0000E+00      0.00
    0.00     36.00   -999.99  -999.99  -999.99      0.0000      0.00         0.0000E+00      0.00  0.0000E+00      0.00
    4.00     36.00    -21.68  -999.99   -21.68      0.0000     -0.00 LINEAR  2.8029E-04   -158.16  0.0000E+00      0.00
    8.00     36.00    -15.67  -999.99   -15.67      0.0000     -0.00 LINEAR  5.5944E-04   -156.94  0.0000E+00      0.00
   12.00     36.00    -12.18  -999.99   -12.18      0.0000     -0.00 LINEAR  8.3629E-04   -155.83  0.0000E+00      0.00
   16.00     36.00     -9.72  -999.99    -9.72      0.0000     -0.00 LINEAR  1.1097E-03   -154.85  0.0000E+00      0.00
   20.00     36.00     -7.84  -999.99    -7.84      0.0000     -0.00 LINEAR  1.3785E-03   -153.99  0.0000E+00      0.00
   24.00     36.00     -6.32  -999.99    -6.32      0.0000     -0.00 LINEAR  1.6415E-03   -153.25  0.0000E+00      0.00
   28.00     36.00     -5.06  -999.99    -5.06      0.0000     -0.00 LINEAR  1.8975E-03   -152.65  0.0000E+00      0.00
   32.00     36.00     -4.00  -999.99    -4.00      0.0000     -0.00 LINEAR  2.1453E-03   -152.19  0.0000E+00      0.00
   36.00     36.00     -3.08  -999.99    -3.08      0.0000     -0.00 LINEAR  2.3838E-03   -151.86  0.0000E+00      0.00
   40.00     36.00     -2.29  -999.99    -2.29      0.0000     -0.00 LINEAR  2.6117E-03   -151.67  0.0000E+00      0.00
   44.00     36.00     -1.60  -999.99    -1.60      0.0000     -0.00 LINEAR  2.8277E-03   -151.62  0.0000E+00      0.00
   48.00     36.00     -1.00  -999.99    -1.00      0.0000     -0.00 LINEAR  3.0308E-03   -151.71  0.0000E+00      0.00
   52.00     36.00     -0.47  -999.99    -0.47      0.0000     -0.00 LINEAR  3.2197E-03   -151.94  0.0000E+00      0.00
   56.00     36.00     -0.01  -999.99    -0.01      0.0000     -0.00 LINEAR  3.3934E-03   -152.32  0.0000E+00      0.00
   60.00     36.00      0.38  -999.99     0.38      0.0000     -0.00 LINEAR  3.5507E-03   -152.82  0.0000E+00      0.00
   64.00     36.00      0.71  -999.99     0.71      0.0000     -0.00 LINEAR  3.6908E-03   -153.47  0.0000E+00      0.00
   68.00     36.00      1.00  -999.99     1.00      0.0000     -0.00 LINEAR  3.8126E-03   -154.24  0.0000E+00      0.00
   72.00     36.00      1.23  -999.99     1.23      0.0000     -0.00 LINEAR  3.9154E-03   -155.15  0.0000E+00      0.00
   76.00     36.00      1.41  -999.99     1.41      0.0000     -0.00 LINEAR  3.9984E-03   -156.17  0.0000E+00      0.00
   80.00     36.00      1.55  -999.99     1.55      0.0000     -0.00 LINEAR  4.0611E-03   -157.32  0.0000E+00      0.00
   84.00     36.00      1.63  -999.99     1.63      0.0000     -0.00 LINEAR  4.1031E-03   -158.58  0.0000E+00      0.00
   88.00     36.00      1.68  -999.99     1.68      0.0000     -0.00 LINEAR  4.1240E-03   -159.94  0.0000E+00      0.00
   92.00     36.00      1.68  -999.99     1.68      0.0000     -0.00 LINEAR  4.1237E-03   -161.41  0.0000E+00      0.00
   96.00     36.00      1.63  -999.99     1.63      0.0000     -0.00 LINEAR  4.1022E-03   -162.97  0.0000E+00      0.00
  100.00     36.00      1.54  -999.99     1.54      0.0000     -0.00 LINEAR  4.0597E-03   -164.61  0.0000E+00      0.00
  104.00     36.00      1.41  -999.99     1.41      0.0000     -0.00 LINEAR  3.9965E-03   -166.33  0.0000E+00      0.00
  108.00     36.00      1.22  -999.99     1.22      0.0000     -0.00 LINEAR  3.9130E-03   -168.11  0.0000E+00      0.00
  112.00     36.00      0.99  -999.99     0.99      0.0000     -0.00 LINEAR  3.8098E-03   -169.96  0.0000E+00      0.00
  116.00     36.00      0.71  -999.99     0.71      0.0000     -0.00 LINEAR  3.6877E-03   -171.86  0.0000E+00      0.00
  120.00     36.00      0.37  -999.99     0.37      0.0000     -0.00 LINEAR  3.5473E-03   -173.79  0.0000E+00      0.00
  124.00     36.00     -0.02  -999.99    -0.02      0.0000     -0.00 LINEAR  3.3897E-03   -175.76  0.0000E+00      0.00
  128.00     36.00     -0.48  -999.99    -0.48      0.0000     -0.00 LINEAR  3.2159E-03   -177.75  0.0000E+00      0.00
  132.00     36.00     -1.01  -999.99    -1.01      0.0000     -0.00 LINEAR  3.0269E-03   -179.76  0.0000E+00      0.00
  136.00     36.00     -1.61  -999.99    -1.61      0.0000     -0.00 LINEAR  2.8238E-03    178.24  0.0000E+00      0.00
  140.00     36.00     -2.30  -999.99    -2.30      0.0000     -0.00 LINEAR  2.6078E-03    176.24  0.0000E+00      0.00
  144.00     36.00     -3.10  -999.99    -3.10      0.0000     -0.00 LINEAR  2.3801E-03    174.26  0.0000E+00      0.00
  148.00     36.00     -4.01  -999.99    -4.01      0.0000     -0.00 LINEAR  2.1418E-03    172.30  0.0000E+00      0.00
  152.00     36.00     -5.08  -999.99    -5.08      0.0000     -0.00 LINEAR  1.8943E-03    170.38  0.0000E+00      0.00
  156.00     36.00     -6.34  -999.99    -6.34      0.0000     -0.00 LINEAR  1.6386E-03    168.51  0.0000E+00      0.00
  160.00     36.00     -7.86  -999.99    -7.86      0.0000     -0.00 LINEAR  1.3760E-03    166.69  0.0000E+00      0.00
  164.00     36.00     -9.74  -999.99    -9.74      0.0000     -0.00 LINEAR  1.1076E-03    164.93  0.0000E+00      0.00
  168.00     36.00    -12.20  -999.99   -12.20      0.0000     -0.00 LINEAR  8.3470E-04    163.24  0.0000E+00      0.00
  172.00     36.00    -15.69  -999.99   -15.69      0.0000     -0.00 LINEAR  5.5836E-04    161.63  0.0000E+00      0.00
  176.00     36.00    -21.69  -999.99   -21.69      0.0000     -0.00 LINEAR  2.7975E-04    160.11  0.0000E+00      0.00
  180.00     36.00   -999.99  -999.99  -999.99      0.0000      0.00         4.0927E-14    -21.32  0.0000E+00      0.00
    0.00     40.00   -999.99  -999.99  -999.99      0.0000      0.00         0.0000E+00      0.00  0.0000E+00      0.00
    4.00     40.00    -21.68  -999.99   -21.68      0.0000     -0.00 LINEAR  2.8029E-04   -158.23  0.0000E+00      0.00
    8.00     40.00    -15.67  -999.99   -15.67      0.0000     -0.00 LINEAR  5.5944E-04   -157.09  0.0000E+00      0.00
   12.00     40.00    -12.18  -999.99   -12.18      0.0000     -0.00 LINEAR  8.3629E-04   -156.05  0.0000E+00      0.00
   16.00     40.00     -9.72  -999.99    -9.72      0.0000     -0.00 LINEAR  1.1097E-03   -155.14  0.0000E+00      0.00
   20.00     40.00     -7.84  -999.99    -7.84      0.0000     -0.00 LINEAR  1.3785E-03   -154.35  0.0000E+00      0.00
   24.00     40.00     -6.32  -999.99    -6.32      0.0000     -0.00 LINEAR  1.6415E-03   -153.68  0.0000E+00      0.00
   28.00     40.00     -5.06  -999.99    -5.06      0.0000     -0.00 LINEAR  1.8975E-03   -153.14  0.0000E+00      0.00
   32.00     40.00     -4.00  -999.99    -4.00      0.0000     -0.00 LINEAR  2.1453E-03   -152.74  0.0000E+00      0.00
   36.00     40.00     -3.08  -999.99    -3.08      0.0000     -0.00 LINEAR  2.3838E-03   -152.47  0.0000E+00      0.00
   40.00     40.00     -2.29  -999.99    -2.29      0.0000     -0.00 LINEAR  2.6117E-03   -152.34  0.0000E+00      0.00
   44.00     40.00     -1.60  -999.99    -1.60      0.0000     -0.00 LINEAR  2.8277E-03   -152.35  0.0000E+00      0.00
   48.00     40.00     -1.00  -999.99    -1.00      0.0000     -0.00 LINEAR  3.0308E-03   -152.49  0.0000E+00      0.00
   52.00     40.00     -0.47  -999.99    -0.47      0.0000     -0.00 LINEAR  3.2197E-03   -152.77  0.0000E+00      0.00
   56.00     40.00     -0.01  -999.99    -0.01      0.0000     -0.00 LINEAR  3.3934E-03   -153.18  0.0000E+00      0.00
   60.00     40.00      0.38  -999.99     0.38      0.0000     -0.00 LINEAR  3.5507E-03   -153.73  0.0000E+00      0.00
   64.00     40.00      0.71  -999.99     0.71      0.0000     -0.00 LINEAR  3.6908E-03   -154.41  0.0000E+00      0.00
   68.00     40.00      1.00  -999.99     1.00      0.0000     -0.00 LINEAR  3.8126E-03   -155.22  0.0000E+00      0.00
   72.00     40.00      1.23  -999.99     1.23      0.0000     -0.00 LINEAR  3.9154E-03   -156.14  0.0000E+00      0.00
   76.00     40.00      1.41  -999.99     1.41      0.0000     -0.00 LINEAR  3.9984E-03   -157.19  0.0000E+00      0.00
   80.00     40.00      1.55  -999.99     1.55      0.0000     -0.00 LINEAR  4.0611E-03   -158.35  0.0000E+00      0.00
   84.00     40.00      1.63  -999.99     1.63      0.0000     -0.00 LINEAR  4.1031E-03   -159.62  0.0000E+00      0.00
   88.00     40.00      1.68  -999.99     1.68      0.0000     -0.00 LINEAR  4.1240E-03   -160.99  0.0000E+00      0.00
   92.00     40.00      1.68  -999.99     1.68      0.0000     -0.00 LINEAR  4.1237E-03   -162.46  0.0000E+00      0.00
   96.00     40.00      1.63  -999.99     1.63      0.0000     -0.00 LINEAR  4.1022E-03   -164.01  0.0000E+00      0.00
  100.00     40.00      1.54  -999.99     1.54      0.0000     -0.00 LINEAR  4.0597E-03   -165.64  0.0000E+00      0.00
  104.00     40.00      1.41  -999.99     1.41      0.0000     -0.00 LINEAR  3.9965E-03   -167.34  0.0000E+00      0.00
  108.00     40.00      1.22  -999.99     1.22      0.0000     -0.00 LINEAR  3.9130E-03   -169.11  0.0000E+00      0.00
  112.00     40.00      0.99  -999.99     0.99      0.0000     -0.00 LINEAR  3.8098E-03   -170.93  0.0000E+00      0.00
  116.00     40.00      0.71  -999.99     0.71      0.0000     -0.00 LINEAR  3.6877E-03   -172.80  0.0000E+00      0.00
  120.00     40.00      0.37  -999.99     0.37      0.0000     -0.00 LINEAR  3.5473E-03   -174.70  0.0000E+00      0.00
  124.00     40.00     -0.02  -999.99    -0.02      0.0000     -0.00 LINEAR  3.3897E-03   -176.63  0.0000E+00      0.00
  128.00     40.00     -0.48  -999.99    -0.48      0.0000     -0.00 LINEAR  3.2159E-03   -178.58  0.0000E+00      0.00
  132.00     40.00     -1.01  -999.99    -1.01      0.0000     -0.00 LINEAR  3.0269E-03    179.47  0.0000E+00      0.00
  136.00     40.00     -1.61  -999.99    -1.61      0.0000     -0.00 LINEAR  2.8238E-03    177.51  0.0000E+00      0.00
  140.00     40.00     -2.30  -999.99    -2.30      0.0000     -0.00 LINEAR  2.6078E-03    175.57  0.0000E+00      0.00
  144.00     40.00     -3.10  -999.99    -3.10      0.0000     -0.00 LINEAR  2.3801E-03    173.64  0.0000E+00      0.00
  148.00     40.00     -4.01  -999.99    -4.01      0.0000     -0.00 LINEAR  2.1418E-03    171.75  0.0000E+00      0.00
  152.00     40.00     -5.08  -999.99    -5.08      0.0000     -0.00 LINEAR  1.8943E-03    169.89  0.0000E+00      0.00
  156.00     40.00     -6.34  -999.99    -6.34      0.0000     -0.00 LINEAR  1.6386E-03    168.08  0.0000E+00      0.00
  160.00     40.00     -7.86  -999.99    -7.86      0.0000     -0.00 LINEAR  1.3760E-03    166.33  0.0000E+00      0.00
  164.00     40.00     -9.74  -999.99    -9.74      0.0000     -0.00 LINEAR  1.1076E-03    164.64  0.0000E+00      0.00
  168.00     40.00    -12.20  -999.99   -12.20      0.0000     -0.00 LINEAR  8.3470E-04    163.02  0.0000E+00      0.00
  172.00     40.00    -15.69  -999.99   -15.69      0.0000     -0.00 LINEAR  5.5836E-04    161.48  0.0000E+00      0.00
  176.00     40.00    -21.69  -999.99   -21.69      0.0000     -0.00 LINEAR  2.7975E-04    160.04  0.0000E+00      0.00
  180.00     40.00   -999.99  -999.99  -999.99      0.0000      0.00         4.0927E-14    -21.32  0.0000E+00      0.00
    0.00     44.00   -999.99  -999.99  -999.99      0.0000      0.00         0.0000E+00      0.00  0.0000E+00      0.00
    4.00     44.00    -21.68  -999.99   -21.68      0.0000     -0.00 LINEAR  2.8029E-04   -158.31  0.0000E+00      0.00
    8.00     44.00    -15.67  -999.99   -15.67      0.0000     -0.00 LINEAR  5.5944E-04   -157.24  0.0000E+00      0.00
   12.00     44.00    -12.18  -999.99   -12.18      0.0000     -0.00 LINEAR  8.3629E-04   -156.29  0.0000E+00      0.00
   16.00     44.00     -9.72  -999.99    -9.72      0.0000     -0.00 LINEAR  1.1097E-03   -155.45  0.0000E+00      0.00
   20.00     44.00     -7.84  -999.99    -7.84      0.0000     -0.00 LINEAR  1.3785E-03   -154.74  0.0000E+00      0.00
   24.00     44.00     -6.32  -999.99    -6.32      0.0000     -0.00 LINEAR  1.6415E-03   -154.14  0.0000E+00      0.00
   28.00     44.00     -5.06  -999.99    -5.06      0.0000     -0.00 LINEAR  1.8975E-03   -153.68  0.0000E+00      0.00
   32.00     44.00     -4.00  -999.99    -4.00      0.0000     -0.00 LINEAR  2.1453E-03   -153.35  0.0000E+00      0.00
   36.00     44.00     -3.08  -999.99    -3.08      0.0000     -0.00 LINEAR  2.3838E-03   -153.14  0.0000E+00      0.00
   40.00     44.00     -2.29  -999.99    -2.29      0.0000     -0.00 LINEAR  2.6117E-03   -153.08  0.0000E+00      0.00
   44.00     44.00     -1.60  -999.99    -1.60      0.0000     -0.00 LINEAR  2.8277E-03   -153.14  0.0000E+00      0.00
   48.00     44.00     -1.00  -999.99    -1.00      0.0000     -0.00 LINEAR  3.0308E-03   -153.34  0.0000E+00      0.00
   52.00     44.00     -0.47  -999.99    -0.47      0.0000     -0.00 LINEAR  3.2197E-03   -153.67  0.0000E+00      0.00
   56.00     44.00     -0.01  -999.99    -0.01      0.0000     -0.00 LINEAR  3.3934E-03   -154.13  0.0000E+00      0.00
   60.00     44.00      0.38  -999.99     0.38      0.0000     -0.00 LINEAR  3.5507E-03   -154.72  0.0000E+00      0.00
   64.00     44.00      0.71  -999.99     0.71      0.0000     -0.00 LINEAR  3.6908E-03   -155.43  0.0000E+00      0.00
   68.00     44.00      1.00  -999.99     1.00      0.0000     -0.00 LINEAR  3.8126E-03   -156.27  0.0000E+00      0.00
   72.00     44.00      1.23  -999.99     1.23      0.0000     -0.00 LINEAR  3.9154E-03   -157.23  0.0000E+00      0.00
   76.00     44.00      1.41  -999.99     1.41      0.0000     -0.00 LINEAR  3.9984E-03   -158.30  0.0000E+00      0.00
   80.00     44.00      1.55  -999.99     1.55      0.0000     -0.00 LINEAR  4.0611E-03   -159.48  0.0000E+00      0.00
   84.00     44.00      1.63  -999.99     1.63      0.0000     -0.00 LINEAR  4.1031E-03   -160.76  0.0000E+00      0.00
   88.00     44.00      1.68  -999.99     1.68      0.0000     -0.00 LINEAR  4.1240E-03   -162.13  0.0000E+00      0.00
   92.00     44.00      1.68  -999.99     1.68      0.0000     -0.00 LINEAR  4.1237E-03   -163.60  0.0000E+00      0.00
   96.00     44.00      1.63  -999.99     1.63      0.0000     -0.00 LINEAR  4.1022E-03   -165.14  0.0000E+00      0.00
  100.00     44.00      1.54  -999.99     1.54      0.0000     -0.00 LINEAR  4.0597E-03   -166.76  0.0000E+00      0.00
  104.00     44.00      1.41  -999.99     1.41      0.0000     -0.00 LINEAR  3.9965E-03   -168.45  0.0000E+00      0.00
  108.00     44.00      1.22  -999.99     1.22      0.0000     -0.00 LINEAR  3.9130E-03   -170.19  0.0000E+00      0.00
  112.00     44.00      0.99  -999.99     0.99      0.0000     -0.00 LINEAR  3.8098E-03   -171.99  0.0000E+00      0.00
  116.00     44.00      0.71  -999.99     0.71      0.0000     -0.00 LINEAR  3.6877E-03   -173.82  0.0000E+00      0.00
  120.00     44.00      0.37  -999.99     0.37      0.0000     -0.00 LINEAR  3.5473E-03   -175.69  0.0000E+00      0.00
  124.00     44.00     -0.02  -999.99    -0.02      0.0000     -0.00 LINEAR  3.3897E-03   -177.58  0.0000E+00      0.00
  128.00     44.00     -0.48  -999.99    -0.48      0.0000     -0.00 LINEAR  3.2159E-03   -179.48  0.0000E+00      0.00
  132.00     44.00     -1.01  -999.99    -1.01      0.0000     -0.00 LINEAR  3.0269E-03    178.62  0.0000E+00      0.00
  136.00     44.00     -1.61  -999.99    -1.61      0.0000     -0.00 LINEAR  2.8238E-03    176.72  0.0000E+00      0.00
  140.00     44.00     -2.30  -999.99    -2.30      0.0000     -0.00 LINEAR  2.6078E-03    174.83  0.0000E+00      0.00
  144.00     44.00     -3.10  -999.99    -3.10      0.0000     -0.00 LINEAR  2.3801E-03    172.97  0.0000E+00      0.00
  148.00     44.00     -4.01  -999.99    -4.01      0.0000     -0.00 LINEAR  2.1418E-03    171.14  0.0000E+00      0.00
  152.00     44.00     -5.08  -999.99    -5.08      0.0000     -0.00 LINEAR  1.8943E-03    169.36  0.0000E+00      0.00
  156.00     44.00     -6.34  -999.99    -6.34      0.0000     -0.00 LINEAR  1.6386E-03    167.62  0.0000E+00      0.00
  160.00     44.00     -7.86  -999.99    -7.86      0.0000     -0.00 LINEAR  1.3760E-03    165.94  0.0000E+00      0.00
  164.00     44.00     -9.74  -999.99    -9.74      0.0000     -0.00 LINEAR  1.1076E-03    164.32  0.0000E+00      0.00
  168.00     44.00    -12.20  -999.99   -12.20      0.0000     -0.00 LINEAR  8.3470E-04    162.78  0.0000E+00      0.00
  172.00     44.00    -15.69  -999.99   -15.69      0.0000     -0.00 LINEAR  5.5836E-04    161.33  0.0000E+00      0.00
  176.00     44.00    -21.69  -999.99   -21.69      0.0000     -0.00 LINEAR  2.7975E-04    159.96  0.0000E+00      0.00
  180.00     44.00   -999.99  -999.99  -999.99      0.0000      0.00         4.0927E-14    -21.32  0.0000E+00      0.00
    0.00     48.00   -999.99  -999.99  -999.99      0.0000      0.00         0.0000E+00      0.00  0.0000E+00      0.00
    4.00     48.00    -21.68  -999.99   -21.68      0.0000     -0.00 LINEAR  2.8029E-04   -158.40  0.0000E+00      0.00
    8.00     48.00    -15.67  -999.99   -15.67      0.0000     -0.00 LINEAR  5.5944E-04   -157.41  0.0000E+00      0.00
   12.00     48.00    -12.18  -999.99   -12.18      0.0000     -0.00 LINEAR  8.3629E-04   -156.54  0.0000E+00      0.00
   16.00     48.00     -9.72  -999.99    -9.72      0.0000     -0.00 LINEAR  1.1097E-03   -155.79  0.0000E+00      0.00
   20.00     48.00     -7.84  -999.99    -7.84      0.0000     -0.00 LINEAR  1.3785E-03   -155.15  0.0000E+00      0.00
   24.00     48.00     -6.32  -999.99    -6.32      0.0000     -0.00 LINEAR  1.6415E-03   -154.64  0.0000E+00      0.00
   28.00     48.00     -5.06  -999.99    -5.06      0.0000     -0.00 LINEAR  1.8975E-03   -154.25  0.0000E+00      0.00
   32.00     48.00     -4.00  -999.99    -4.00      0.0000     -0.00 LINEAR  2.1453E-03   -154.00  0.0000E+00      0.00
   36.00     48.00     -3.08  -999.99    -3.08      0.0000     -0.00 LINEAR  2.3838E-03   -153.86  0.0000E+00      0.00
   40.00     48.00     -2.29  -999.99    -2.29      0.0000     -0.00 LINEAR  2.6117E-03   -153.86  0.0000E+00      0.00
   44.00     48.00     -1.60  -999.99    -1.60      0.0000     -0.00 LINEAR  2.8277E-03   -153.99  0.0000E+00      0.00
   48.00     48.00     -1.00  -999.99    -1.00      0.0000     -0.00 LINEAR  3.0308E-03   -154.25  0.0000E+00      0.00
   52.00     48.00     -0.47  -999.99    -0.47      0.0000     -0.00 LINEAR  3.2197E-03   -154.63  0.0000E+00      0.00
   56.00     48.00     -0.01  -999.99    -0.01      0.0000     -0.00 LINEAR  3.3934E-03   -155.15  0.0000E+00      0.00
   60.00     48.00      0.38  -999.99     0.38      0.0000     -0.00 LINEAR  3.5507E-03   -155.78  0.0000E+00      0.00
   64.00     48.00      0.71  -999.99     0.71      0.0000     -0.00 LINEAR  3.6908E-03   -156.54  0.0000E+00      0.00
   68.00     48.00      1.00  -999.99     1.00      0.0000     -0.00 LINEAR  3.8126E-03   -157.41  0.0000E+00      0.00
   72.00     48.00      1.23  -999.99     1.23      0.0000     -0.00 LINEAR  3.9154E-03   -158.39  0.0000E+00      0.00
   76.00     48.00      1.41  -999.99     1.41      0.0000     -0.00 LINEAR  3.9984E-03   -159.49  0.0000E+00      0.00
   80.00     48.00      1.55  -999.99     1.55      0.0000     -0.00 LINEAR  4.0611E-03   -160.68  0.0000E+00      0.00
   84.00     48.00      1.63  -999.99     1.63      0.0000     -0.00 LINEAR  4.1031E-03   -161.97  0.0000E+00      0.00
   88.00     48.00      1.68  -999.99     1.68      0.0000     -0.00 LINEAR  4.1240E-03   -163.36  0.0000E+00      0.00
   92.00     48.00      1.68  -999.99     1.68      0.0000     -0.00 LINEAR  4.1237E-03   -164.82  0.0000E+00      0.00
   96.00     48.00      1.63  -999.99     1.63      0.0000     -0.00 LINEAR  4.1022E-03   -166.36  0.0000E+00      0.00
  100.00     48.00      1.54  -999.99     1.54      0.0000     -0.00 LINEAR  4.0597E-03   -167.97  0.0000E+00      0.00
  104.00     48.00      1.41  -999.99     1.41      0.0000     -0.00 LINEAR  3.9965E-03   -169.64  0.0000E+00      0.00
  108.00     48.00      1.22  -999.99     1.22      0.0000     -0.00 LINEAR  3.9130E-03   -171.36  0.0000E+00      0.00
  112.00     48.00      0.99  -999.99     0.99      0.0000     -0.00 LINEAR  3.8098E-03   -173.12  0.0000E+00      0.00
  116.00     48.00      0.71  -999.99     0.71      0.0000     -0.00 LINEAR  3.6877E-03   -174.92  0.0000E+00      0.00
  120.00     48.00      0.37  -999.99     0.37      0.0000     -0.00 LINEAR  3.5473E-03   -176.75  0.0000E+00      0.00
  124.00     48.00     -0.02  -999.99    -0.02      0.0000     -0.00 LINEAR  3.3897E-03   -178.59  0.0000E+00      0.00
  128.00     48.00     -0.48  -999.99    -0.48      0.0000     -0.00 LINEAR  3.2159E-03    179.56  0.0000E+00      0.00
  132.00     48.00     -1.01  -999.99    -1.01      0.0000     -0.00 LINEAR  3.0269E-03    177.71  0.0000E+00      0.00
  136.00     48.00     -1.61  -999.99    -1.61      0.0000     -0.00 LINEAR  2.8238E-03    175.87  0.0000E+00      0.00
  140.00     48.00     -2.30  -999.99    -2.30      0.0000     -0.00 LINEAR  2.6078E-03    174.05  0.0000E+00      0.00
  144.00     48.00     -3.10  -999.99    -3.10      0.0000     -0.00 LINEAR  2.3801E-03    172.25  0.0000E+00      0.00
  148.00     48.00     -4.01  -999.99    -4.01      0.0000     -0.00 LINEAR  2.1418E-03    170.49  0.0000E+00      0.00
  152.00     48.00     -5.08  -999.99    -5.08      0.0000     -0.00 LINEAR  1.8943E-03    168.78  0.0000E+00      0.00
  156.00     48.00     -6.34  -999.99    -6.34      0.0000     -0.00 LINEAR  1.6386E-03    167.12  0.0000E+00      0.00
  160.00     48.00     -7.86  -999.99    -7.86      0.0000     -0.00 LINEAR  1.3760E-03    165.52  0.0000E+00      0.00
  164.00     48.00     -9.74  -999.99    -9.74      0.0000     -0.00 LINEAR  1.1076E-03    163.99  0.0000E+00      0.00
  168.00     48.00    -12.20  -999.99   -12.20      0.0000     -0.00 LINEAR  8.3470E-04    162.53  0.0000E+00      0.00
  172.00     48.00    -15.69  -999.99   -15.69      0.0000     -0.00 LINEAR  5.5836E-04    161.16  0.0000E+00      0.00
  176.00     48.00    -21.69  -999.99   -21.69      0.0000     -0.00 LINEAR  2.7975E-04    159.87  0.0000E+00      0.00
  180.00     48.00   -999.99  -999.99  -999.99      0.0000      0.00         4.0927E-14    -21.32  0.0000E+00      0.00
    0.00     52.00   -999.99  -999.99  -999.99      0.0000      0.00         0.0000E+00      0.00  0.0000E+00      0.00
    4.00     52.00    -21.68  -999.99   -21.68      0.0000     -0.00 LINEAR  2.8029E-04   -158.49  0.0000E+00      0.00
    8.00     52.00    -15.67  -999.99   -15.67      0.0000     -0.00 LINEAR  5.5944E-04   -157.60  0.0000E+00      0.00
   12.00     52.00    -12.18  -999.99   -12.18      0.0000     -0.00 LINEAR  8.3629E-04   -156.82  0.0000E+00      0.00
   16.00     52.00     -9.72  -999.99    -9.72      0.0000     -0.00 LINEAR  1.1097E-03   -156.15  0.0000E+00      0.00
   20.00     52.00     -7.84  -999.99    -7.84      0.0000     -0.00 LINEAR  1.3785E-03   -155.60  0.0000E+00      0.00
   24.00     52.00     -6.32  -999.99    -6.32      0.0000     -0.00 LINEAR  1.6415E-03   -155.17  0.0000E+00      0.00
   28.00     52.00     -5.06  -999.99    -5.06      0.0000     -0.00 LINEAR  1.8975E-03   -154.87  0.0000E+00      0.00
   32.00     52.00     -4.00  -999.99    -4.00      0.0000     -0.00 LINEAR  2.1453E-03   -154.69  0.0000E+00      0.00
   36.00     52.00     -3.08  -999.99    -3.08      0.0000     -0.00 LINEAR  2.3838E-03   -154.63  0.0000E+00      0.00
   40.00     52.00     -2.29  -999.99    -2.29      0.0000     -0.00 LINEAR  2.6117E-03   -154.70  0.0000E+00      0.00
   44.00     52.00     -1.60  -999.99    -1.60      0.0000     -0.00 LINEAR  2.8277E-03   -154.90  0.0000E+00      0.00
   48.00     52.00     -1.00  -999.99    -1.00      0.0000     -0.00 LINEAR  3.0308E-03   -155.22  0.0000E+00      0.00
   52.00     52.00     -0.47  -999.99    -0.47      0.0000     -0.00 LINEAR  3.2197E-03   -155.66  0.0000E+00      0.00
   56.00     52.00     -0.01  -999.99    -0.01      0.0000     -0.00 LINEAR  3.3934E-03   -156.23  0.0000E+00      0.00
   60.00     52.00      0.38  -999.99     0.38      0.0000     -0.00 LINEAR  3.5507E-03   -156.91  0.0000E+00      0.00
   64.00     52.00      0.71  -999.99     0.71      0.0000     -0.00 LINEAR  3.6908E-03   -157.71  0.0000E+00      0.00
   68.00     52.00      1.00  -999.99     1.00      0.0000     -0.00 LINEAR  3.8126E-03   -158.62  0.0000E+00      0.00
   72.00     52.00      1.23  -999.99     1.23      0.0000     -0.00 LINEAR  3.9154E-03   -159.63  0.0000E+00      0.00
[...]
   76.00    344.00      1.41  -999.99     1.41      0.0000     -0.00 LINEAR  3.9984E-03   -152.57  0.0000E+00      0.00
   80.00    344.00      1.55  -999.99     1.55      0.0000     -0.00 LINEAR  4.0611E-03   -153.66  0.0000E+00      0.00
   84.00    344.00      1.63  -999.99     1.63      0.0000     -0.00 LINEAR  4.1031E-03   -154.88  0.0000E+00      0.00
   88.00    344.00      1.68  -999.99     1.68      0.0000     -0.00 LINEAR  4.1240E-03   -156.23  0.0000E+00      0.00
   92.00    344.00      1.68  -999.99     1.68      0.0000     -0.00 LINEAR  4.1237E-03   -157.70  0.0000E+00      0.00
   96.00    344.00      1.63  -999.99     1.63      0.0000     -0.00 LINEAR  4.1022E-03   -159.27  0.0000E+00      0.00
  100.00    344.00      1.54  -999.99     1.54      0.0000     -0.00 LINEAR  4.0597E-03   -160.95  0.0000E+00      0.00
  104.00    344.00      1.41  -999.99     1.41      0.0000     -0.00 LINEAR  3.9965E-03   -162.72  0.0000E+00      0.00
  108.00    344.00      1.22  -999.99     1.22      0.0000     -0.00 LINEAR  3.9130E-03   -164.58  0.0000E+00      0.00
  112.00    344.00      0.99  -999.99     0.99      0.0000     -0.00 LINEAR  3.8098E-03   -166.51  0.0000E+00      0.00
  116.00    344.00      0.71  -999.99     0.71      0.0000     -0.00 LINEAR  3.6877E-03   -168.52  0.0000E+00      0.00
  120.00    344.00      0.37  -999.99     0.37      0.0000     -0.00 LINEAR  3.5473E-03   -170.58  0.0000E+00      0.00
  124.00    344.00     -0.02  -999.99    -0.02      0.0000     -0.00 LINEAR  3.3897E-03   -172.68  0.0000E+00      0.00
  128.00    344.00     -0.48  -999.99    -0.48      0.0000     -0.00 LINEAR  3.2159E-03   -174.82  0.0000E+00      0.00
  132.00    344.00     -1.01  -999.99    -1.01      0.0000     -0.00 LINEAR  3.0269E-03   -176.99  0.0000E+00      0.00
  136.00    344.00     -1.61  -999.99    -1.61      0.0000     -0.00 LINEAR  2.8238E-03   -179.18  0.0000E+00      0.00
  140.00    344.00     -2.30  -999.99    -2.30      0.0000     -0.00 LINEAR  2.6078E-03    178.63  0.0000E+00      0.00
  144.00    344.00     -3.10  -999.99    -3.10      0.0000     -0.00 LINEAR  2.3801E-03    176.44  0.0000E+00      0.00
  148.00    344.00     -4.01  -999.99    -4.01      0.0000     -0.00 LINEAR  2.1418E-03    174.27  0.0000E+00      0.00
  152.00    344.00     -5.08  -999.99    -5.08      0.0000     -0.00 LINEAR  1.8943E-03    172.13  0.0000E+00      0.00
  156.00    344.00     -6.34  -999.99    -6.34      0.0000     -0.00 LINEAR  1.6386E-03    170.02  0.0000E+00      0.00
  160.00    344.00     -7.86  -999.99    -7.86      0.0000     -0.00 LINEAR  1.3760E-03    167.96  0.0000E+00      0.00
  164.00    344.00     -9.74  -999.99    -9.74      0.0000     -0.00 LINEAR  1.1076E-03    165.95  0.0000E+00      0.00
  168.00    344.00    -12.20  -999.99   -12.20      0.0000     -0.00 LINEAR  8.3470E-04    164.01  0.0000E+00      0.00
  172.00    344.00    -15.69  -999.99   -15.69      0.0000     -0.00 LINEAR  5.5836E-04    162.15  0.0000E+00      0.00
  176.00    344.00    -21.69  -999.99   -21.69      0.0000     -0.00 LINEAR  2.7975E-04    160.37  0.0000E+00      0.00
  180.00    344.00   -999.99  -999.99  -999.99      0.0000      0.00         4.0927E-14    -21.32  0.0000E+00      0.00
    0.00    348.00   -999.99  -999.99  -999.99      0.0000      0.00         0.0000E+00      0.00  0.0000E+00      0.00
    4.00    348.00    -21.68  -999.99   -21.68      0.0000     -0.00 LINEAR  2.8029E-04   -157.87  0.0000E+00      0.00
    8.00    348.00    -15.67  -999.99   -15.67      0.0000     -0.00 LINEAR  5.5944E-04   -156.36  0.0000E+00      0.00
   12.00    348.00    -12.18  -999.99   -12.18      0.0000     -0.00 LINEAR  8.3629E-04   -154.98  0.0000E+00      0.00
   16.00    348.00     -9.72  -999.99    -9.72      0.0000     -0.00 LINEAR  1.1097E-03   -153.71  0.0000E+00      0.00
   20.00    348.00     -7.84  -999.99    -7.84      0.0000     -0.00 LINEAR  1.3785E-03   -152.58  0.0000E+00      0.00
   24.00    348.00     -6.32  -999.99    -6.32      0.0000     -0.00 LINEAR  1.6415E-03   -151.58  0.0000E+00      0.00
   28.00    348.00     -5.06  -999.99    -5.06      0.0000     -0.00 LINEAR  1.8975E-03   -150.72  0.0000E+00      0.00
   32.00    348.00     -4.00  -999.99    -4.00      0.0000     -0.00 LINEAR  2.1453E-03   -150.00  0.0000E+00      0.00
   36.00    348.00     -3.08  -999.99    -3.08      0.0000     -0.00 LINEAR  2.3838E-03   -149.43  0.0000E+00      0.00
   40.00    348.00     -2.29  -999.99    -2.29      0.0000     -0.00 LINEAR  2.6117E-03   -149.02  0.0000E+00      0.00
   44.00    348.00     -1.60  -999.99    -1.60      0.0000     -0.00 LINEAR  2.8277E-03   -148.75  0.0000E+00      0.00
   48.00    348.00     -1.00  -999.99    -1.00      0.0000     -0.00 LINEAR  3.0308E-03   -148.65  0.0000E+00      0.00
   52.00    348.00     -0.47  -999.99    -0.47      0.0000     -0.00 LINEAR  3.2197E-03   -148.69  0.0000E+00      0.00
   56.00    348.00     -0.01  -999.99    -0.01      0.0000     -0.00 LINEAR  3.3934E-03   -148.89  0.0000E+00      0.00
   60.00    348.00      0.38  -999.99     0.38      0.0000     -0.00 LINEAR  3.5507E-03   -149.25  0.0000E+00      0.00
   64.00    348.00      0.71  -999.99     0.71      0.0000     -0.00 LINEAR  3.6908E-03   -149.76  0.0000E+00      0.00
   68.00    348.00      1.00  -999.99     1.00      0.0000     -0.00 LINEAR  3.8126E-03   -150.42  0.0000E+00      0.00
   72.00    348.00      1.23  -999.99     1.23      0.0000     -0.00 LINEAR  3.9154E-03   -151.22  0.0000E+00      0.00
   76.00    348.00      1.41  -999.99     1.41      0.0000     -0.00 LINEAR  3.9984E-03   -152.17  0.0000E+00      0.00
   80.00    348.00      1.55  -999.99     1.55      0.0000     -0.00 LINEAR  4.0611E-03   -153.26  0.0000E+00      0.00
   84.00    348.00      1.63  -999.99     1.63      0.0000     -0.00 LINEAR  4.1031E-03   -154.47  0.0000E+00      0.00
   88.00    348.00      1.68  -999.99     1.68      0.0000     -0.00 LINEAR  4.1240E-03   -155.82  0.0000E+00      0.00
   92.00    348.00      1.68  -999.99     1.68      0.0000     -0.00 LINEAR  4.1237E-03   -157.28  0.0000E+00      0.00
   96.00    348.00      1.63  -999.99     1.63      0.0000     -0.00 LINEAR  4.1022E-03   -158.86  0.0000E+00      0.00
  100.00    348.00      1.54  -999.99     1.54      0.0000     -0.00 LINEAR  4.0597E-03   -160.54  0.0000E+00      0.00
  104.00    348.00      1.41  -999.99     1.41      0.0000     -0.00 LINEAR  3.9965E-03   -162.32  0.0000E+00      0.00
  108.00    348.00      1.22  -999.99     1.22      0.0000     -0.00 LINEAR  3.9130E-03   -164.19  0.0000E+00      0.00
  112.00    348.00      0.99  -999.99     0.99      0.0000     -0.00 LINEAR  3.8098E-03   -166.13  0.0000E+00      0.00
  116.00    348.00      0.71  -999.99     0.71      0.0000     -0.00 LINEAR  3.6877E-03   -168.15  0.0000E+00      0.00
  120.00    348.00      0.37  -999.99     0.37      0.0000     -0.00 LINEAR  3.5473E-03   -170.22  0.0000E+00      0.00
  124.00    348.00     -0.02  -999.99    -0.02      0.0000     -0.00 LINEAR  3.3897E-03   -172.34  0.0000E+00      0.00
  128.00    348.00     -0.48  -999.99    -0.48      0.0000     -0.00 LINEAR  3.2159E-03   -174.50  0.0000E+00      0.00
  132.00    348.00     -1.01  -999.99    -1.01      0.0000     -0.00 LINEAR  3.0269E-03   -176.69  0.0000E+00      0.00
  136.00    348.00     -1.61  -999.99    -1.61      0.0000     -0.00 LINEAR  2.8238E-03   -178.89  0.0000E+00      0.00
  140.00    348.00     -2.30  -999.99    -2.30      0.0000     -0.00 LINEAR  2.6078E-03    178.89  0.0000E+00      0.00
  144.00    348.00     -3.10  -999.99    -3.10      0.0000     -0.00 LINEAR  2.3801E-03    176.68  0.0000E+00      0.00
  148.00    348.00     -4.01  -999.99    -4.01      0.0000     -0.00 LINEAR  2.1418E-03    174.49  0.0000E+00      0.00
  152.00    348.00     -5.08  -999.99    -5.08      0.0000     -0.00 LINEAR  1.8943E-03    172.32  0.0000E+00      0.00
  156.00    348.00     -6.34  -999.99    -6.34      0.0000     -0.00 LINEAR  1.6386E-03    170.19  0.0000E+00      0.00
  160.00    348.00     -7.86  -999.99    -7.86      0.0000     -0.00 LINEAR  1.3760E-03    168.10  0.0000E+00      0.00
  164.00    348.00     -9.74  -999.99    -9.74      0.0000     -0.00 LINEAR  1.1076E-03    166.06  0.0000E+00      0.00
  168.00    348.00    -12.20  -999.99   -12.20      0.0000     -0.00 LINEAR  8.3470E-04    164.10  0.0000E+00      0.00
  172.00    348.00    -15.69  -999.99   -15.69      0.0000     -0.00 LINEAR  5.5836E-04    162.20  0.0000E+00      0.00
  176.00    348.00    -21.69  -999.99   -21.69      0.0000     -0.00 LINEAR  2.7975E-04    160.40  0.0000E+00      0.00
  180.00    348.00   -999.99  -999.99  -999.99      0.0000      0.00         4.0927E-14    -21.32  0.0000E+00      0.00
    0.00    352.00   -999.99  -999.99  -999.99      0.0000      0.00         0.0000E+00      0.00  0.0000E+00      0.00
    4.00    352.00    -21.68  -999.99   -21.68      0.0000     -0.00 LINEAR  2.8029E-04   -157.85  0.0000E+00      0.00
    8.00    352.00    -15.67  -999.99   -15.67      0.0000     -0.00 LINEAR  5.5944E-04   -156.32  0.0000E+00      0.00
   12.00    352.00    -12.18  -999.99   -12.18      0.0000     -0.00 LINEAR  8.3629E-04   -154.91  0.0000E+00      0.00
   16.00    352.00     -9.72  -999.99    -9.72      0.0000     -0.00 LINEAR  1.1097E-03   -153.63  0.0000E+00      0.00
   20.00    352.00     -7.84  -999.99    -7.84      0.0000     -0.00 LINEAR  1.3785E-03   -152.47  0.0000E+00      0.00
   24.00    352.00     -6.32  -999.99    -6.32      0.0000     -0.00 LINEAR  1.6415E-03   -151.45  0.0000E+00      0.00
   28.00    352.00     -5.06  -999.99    -5.06      0.0000     -0.00 LINEAR  1.8975E-03   -150.58  0.0000E+00      0.00
   32.00    352.00     -4.00  -999.99    -4.00      0.0000     -0.00 LINEAR  2.1453E-03   -149.84  0.0000E+00      0.00
   36.00    352.00     -3.08  -999.99    -3.08      0.0000     -0.00 LINEAR  2.3838E-03   -149.26  0.0000E+00      0.00
   40.00    352.00     -2.29  -999.99    -2.29      0.0000     -0.00 LINEAR  2.6117E-03   -148.83  0.0000E+00      0.00
   44.00    352.00     -1.60  -999.99    -1.60      0.0000     -0.00 LINEAR  2.8277E-03   -148.55  0.0000E+00      0.00
   48.00    352.00     -1.00  -999.99    -1.00      0.0000     -0.00 LINEAR  3.0308E-03   -148.43  0.0000E+00      0.00
   52.00    352.00     -0.47  -999.99    -0.47      0.0000     -0.00 LINEAR  3.2197E-03   -148.46  0.0000E+00      0.00
   56.00    352.00     -0.01  -999.99    -0.01      0.0000     -0.00 LINEAR  3.3934E-03   -148.65  0.0000E+00      0.00
   60.00    352.00      0.38  -999.99     0.38      0.0000     -0.00 LINEAR  3.5507E-03   -148.99  0.0000E+00      0.00
   64.00    352.00      0.71  -999.99     0.71      0.0000     -0.00 LINEAR  3.6908E-03   -149.49  0.0000E+00      0.00
   68.00    352.00      1.00  -999.99     1.00      0.0000     -0.00 LINEAR  3.8126E-03   -150.14  0.0000E+00      0.00
   72.00    352.00      1.23  -999.99     1.23      0.0000     -0.00 LINEAR  3.9154E-03   -150.94  0.0000E+00      0.00
   76.00    352.00      1.41  -999.99     1.41      0.0000     -0.00 LINEAR  3.9984E-03   -151.88  0.0000E+00      0.00
   80.00    352.00      1.55  -999.99     1.55      0.0000     -0.00 LINEAR  4.0611E-03   -152.97  0.0000E+00      0.00
   84.00    352.00      1.63  -999.99     1.63      0.0000     -0.00 LINEAR  4.1031E-03   -154.18  0.0000E+00      0.00
   88.00    352.00      1.68  -999.99     1.68      0.0000     -0.00 LINEAR  4.1240E-03   -155.52  0.0000E+00      0.00
   92.00    352.00      1.68  -999.99     1.68      0.0000     -0.00 LINEAR  4.1237E-03   -156.99  0.0000E+00      0.00
   96.00    352.00      1.63  -999.99     1.63      0.0000     -0.00 LINEAR  4.1022E-03   -158.57  0.0000E+00      0.00
  100.00    352.00      1.54  -999.99     1.54      0.0000     -0.00 LINEAR  4.0597E-03   -160.25  0.0000E+00      0.00
  104.00    352.00      1.41  -999.99     1.41      0.0000     -0.00 LINEAR  3.9965E-03   -162.04  0.0000E+00      0.00
  108.00    352.00      1.22  -999.99     1.22      0.0000     -0.00 LINEAR  3.9130E-03   -163.91  0.0000E+00      0.00
  112.00    352.00      0.99  -999.99     0.99      0.0000     -0.00 LINEAR  3.8098E-03   -165.86  0.0000E+00      0.00
  116.00    352.00      0.71  -999.99     0.71      0.0000     -0.00 LINEAR  3.6877E-03   -167.88  0.0000E+00      0.00
  120.00    352.00      0.37  -999.99     0.37      0.0000     -0.00 LINEAR  3.5473E-03   -169.96  0.0000E+00      0.00
  124.00    352.00     -0.02  -999.99    -0.02      0.0000     -0.00 LINEAR  3.3897E-03   -172.09  0.0000E+00      0.00
  128.00    352.00     -0.48  -999.99    -0.48      0.0000     -0.00 LINEAR  3.2159E-03   -174.27  0.0000E+00      0.00
  132.00    352.00     -1.01  -999.99    -1.01      0.0000     -0.00 LINEAR  3.0269E-03   -176.47  0.0000E+00      0.00
  136.00    352.00     -1.61  -999.99    -1.61      0.0000     -0.00 LINEAR  2.8238E-03   -178.69  0.0000E+00      0.00
  140.00    352.00     -2.30  -999.99    -2.30      0.0000     -0.00 LINEAR  2.6078E-03    179.08  0.0000E+00      0.00
  144.00    352.00     -3.10  -999.99    -3.10      0.0000     -0.00 LINEAR  2.3801E-03    176.86  0.0000E+00      0.00
  148.00    352.00     -4.01  -999.99    -4.01      0.0000     -0.00 LINEAR  2.1418E-03    174.65  0.0000E+00      0.00
  152.00    352.00     -5.08  -999.99    -5.08      0.0000     -0.00 LINEAR  1.8943E-03    172.46  0.0000E+00      0.00
  156.00    352.00     -6.34  -999.99    -6.34      0.0000     -0.00 LINEAR  1.6386E-03    170.31  0.0000E+00      0.00
  160.00    352.00     -7.86  -999.99    -7.86      0.0000     -0.00 LINEAR  1.3760E-03    168.20  0.0000E+00      0.00
  164.00    352.00     -9.74  -999.99    -9.74      0.0000     -0.00 LINEAR  1.1076E-03    166.15  0.0000E+00      0.00
  168.00    352.00    -12.20  -999.99   -12.20      0.0000     -0.00 LINEAR  8.3470E-04    164.16  0.0000E+00      0.00
  172.00    352.00    -15.69  -999.99   -15.69      0.0000     -0.00 LINEAR  5.5836E-04    162.25  0.0000E+00      0.00
  176.00    352.00    -21.69  -999.99   -21.69      0.0000     -0.00 LINEAR  2.7975E-04    160.42  0.0000E+00      0.00
  180.00    352.00   -999.99  -999.99  -999.99      0.0000      0.00         4.0927E-14    -21.32  0.0000E+00      0.00
    0.00    356.00   -999.99  -999.99  -999.99      0.0000      0.00         0.0000E+00      0.00  0.0000E+00      0.00
    4.00    356.00    -21.68  -999.99   -21.68      0.0000     -0.00 LINEAR  2.8029E-04   -157.84  0.0000E+00      0.00
    8.00    356.00    -15.67  -999.99   -15.67      0.0000     -0.00 LINEAR  5.5944E-04   -156.30  0.0000E+00      0.00
   12.00    356.00    -12.18  -999.99   -12.18      0.0000     -0.00 LINEAR  8.3629E-04   -154.88  0.0000E+00      0.00
   16.00    356.00     -9.72  -999.99    -9.72      0.0000     -0.00 LINEAR  1.1097E-03   -153.58  0.0000E+00      0.00
   20.00    356.00     -7.84  -999.99    -7.84      0.0000     -0.00 LINEAR  1.3785E-03   -152.41  0.0000E+00      0.00
   24.00    356.00     -6.32  -999.99    -6.32      0.0000     -0.00 LINEAR  1.6415E-03   -151.38  0.0000E+00      0.00
   28.00    356.00     -5.06  -999.99    -5.06      0.0000     -0.00 LINEAR  1.8975E-03   -150.49  0.0000E+00      0.00
   32.00    356.00     -4.00  -999.99    -4.00      0.0000     -0.00 LINEAR  2.1453E-03   -149.75  0.0000E+00      0.00
   36.00    356.00     -3.08  -999.99    -3.08      0.0000     -0.00 LINEAR  2.3838E-03   -149.15  0.0000E+00      0.00
   40.00    356.00     -2.29  -999.99    -2.29      0.0000     -0.00 LINEAR  2.6117E-03   -148.71  0.0000E+00      0.00
   44.00    356.00     -1.60  -999.99    -1.60      0.0000     -0.00 LINEAR  2.8277E-03   -148.42  0.0000E+00      0.00
   48.00    356.00     -1.00  -999.99    -1.00      0.0000     -0.00 LINEAR  3.0308E-03   -148.29  0.0000E+00      0.00
   52.00    356.00     -0.47  -999.99    -0.47      0.0000     -0.00 LINEAR  3.2197E-03   -148.32  0.0000E+00      0.00
   56.00    356.00     -0.01  -999.99    -0.01      0.0000     -0.00 LINEAR  3.3934E-03   -148.50  0.0000E+00      0.00
   60.00    356.00      0.38  -999.99     0.38      0.0000     -0.00 LINEAR  3.5507E-03   -148.84  0.0000E+00      0.00
   64.00    356.00      0.71  -999.99     0.71      0.0000     -0.00 LINEAR  3.6908E-03   -149.33  0.0000E+00      0.00
   68.00    356.00      1.00  -999.99     1.00      0.0000     -0.00 LINEAR  3.8126E-03   -149.98  0.0000E+00      0.00
   72.00    356.00      1.23  -999.99     1.23      0.0000     -0.00 LINEAR  3.9154E-03   -150.77  0.0000E+00      0.00
   76.00    356.00      1.41  -999.99     1.41      0.0000     -0.00 LINEAR  3.9984E-03   -151.71  0.0000E+00      0.00
   80.00    356.00      1.55  -999.99     1.55      0.0000     -0.00 LINEAR  4.0611E-03   -152.79  0.0000E+00      0.00
   84.00    356.00      1.63  -999.99     1.63      0.0000     -0.00 LINEAR  4.1031E-03   -154.00  0.0000E+00      0.00
   88.00    356.00      1.68  -999.99     1.68      0.0000     -0.00 LINEAR  4.1240E-03   -155.35  0.0000E+00      0.00
   92.00    356.00      1.68  -999.99     1.68      0.0000     -0.00 LINEAR  4.1237E-03   -156.81  0.0000E+00      0.00
   96.00    356.00      1.63  -999.99     1.63      0.0000     -0.00 LINEAR  4.1022E-03   -158.39  0.0000E+00      0.00
  100.00    356.00      1.54  -999.99     1.54      0.0000     -0.00 LINEAR  4.0597E-03   -160.08  0.0000E+00      0.00
  104.00    356.00      1.41  -999.99     1.41      0.0000     -0.00 LINEAR  3.9965E-03   -161.86  0.0000E+00      0.00
  108.00    356.00      1.22  -999.99     1.22      0.0000     -0.00 LINEAR  3.9130E-03   -163.74  0.0000E+00      0.00
  112.00    356.00      0.99  -999.99     0.99      0.0000     -0.00 LINEAR  3.8098E-03   -165.69  0.0000E+00      0.00
  116.00    356.00      0.71  -999.99     0.71      0.0000     -0.00 LINEAR  3.6877E-03   -167.72  0.0000E+00      0.00
  120.00    356.00      0.37  -999.99     0.37      0.0000     -0.00 LINEAR  3.5473E-03   -169.81  0.0000E+00      0.00
  124.00    356.00     -0.02  -999.99    -0.02      0.0000     -0.00 LINEAR  3.3897E-03   -171.95  0.0000E+00      0.00
  128.00    356.00     -0.48  -999.99    -0.48      0.0000     -0.00 LINEAR  3.2159E-03   -174.13  0.0000E+00      0.00
  132.00    356.00     -1.01  -999.99    -1.01      0.0000     -0.00 LINEAR  3.0269E-03   -176.34  0.0000E+00      0.00
  136.00    356.00     -1.61  -999.99    -1.61      0.0000     -0.00 LINEAR  2.8238E-03   -178.56  0.0000E+00      0.00
  140.00    356.00     -2.30  -999.99    -2.30      0.0000     -0.00 LINEAR  2.6078E-03    179.20  0.0000E+00      0.00
  144.00    356.00     -3.10  -999.99    -3.10      0.0000     -0.00 LINEAR  2.3801E-03    176.96  0.0000E+00      0.00
  148.00    356.00     -4.01  -999.99    -4.01      0.0000     -0.00 LINEAR  2.1418E-03    174.74  0.0000E+00      0.00
  152.00    356.00     -5.08  -999.99    -5.08      0.0000     -0.00 LINEAR  1.8943E-03    172.54  0.0000E+00      0.00
  156.00    356.00     -6.34  -999.99    -6.34      0.0000     -0.00 LINEAR  1.6386E-03    170.38  0.0000E+00      0.00
  160.00    356.00     -7.86  -999.99    -7.86      0.0000     -0.00 LINEAR  1.3760E-03    168.26  0.0000E+00      0.00
  164.00    356.00     -9.74  -999.99    -9.74      0.0000     -0.00 LINEAR  1.1076E-03    166.20  0.0000E+00      0.00
  168.00    356.00    -12.20  -999.99   -12.20      0.0000     -0.00 LINEAR  8.3470E-04    164.20  0.0000E+00      0.00
  172.00    356.00    -15.69  -999.99   -15.69      0.0000     -0.00 LINEAR  5.5836E-04    162.27  0.0000E+00      0.00
  176.00    356.00    -21.69  -999.99   -21.69      0.0000     -0.00 LINEAR  2.7975E-04    160.43  0.0000E+00      0.00
  180.00    356.00   -999.99  -999.99  -999.99      0.0000      0.00         4.0927E-14    -21.32  0.0000E+00      0.00








*****  DATA CARD N0.   5 EN   0     0     0     0  0.00000E+00  0.00000E+00  0.00000E+00  0.00000E+00  0.00000E+00  0.00000E+00

  TOTAL RUN TIME: 30 msec