


                                __________________________________________
                               |                                          |
                               | NUMERICAL ELECTROMAGNETICS CODE (nec2++) |
                               | Translated to 'C++' in Double Precision  |
                               |        Version 1.5.1 [2014-01-01]        |
                               |__________________________________________|



                                -------- STRUCTURE SPECIFICATION --------
                                COORDINATES MUST BE INPUT IN
                                METERS OR BE SCALED TO METERS
                                BEFORE STRUCTURE INPUT IS ENDED
  WIRE                                                                                 SEG FIRST  LAST  TAG
   No:        X1         Y1         Z1         X2         Y2         Z2       RADIUS   No:   SEG   SEG  No:

     1      0.3048     0.5080     0.0000     0.3048     0.5080     0.4800     0.0010     8     1     8    1
     STRUCTURE SCALED BY FACTOR:    1.00000

     TOTAL SEGMENTS USED: 8   SEGMENTS IN A SYMMETRIC CELL: 8   SYMMETRY FLAG: 0


                               ---------- SEGMENTATION DATA ----------
                                        COORDINATES IN METERS
                            I+ AND I- INDICATE THE SEGMENTS BEFORE AND AFTER I

   SEG    COORDINATES OF SEGM CENTER     SEGM    ORIENTATION ANGLES    WIRE    CONNECTION DATA   TAG
   No:       X         Y         Z      LENGTH     ALPHA      BETA    RADIUS    I-     I    I+   NO:
     1    0.3048    0.5080    0.0300    0.0600   90.0000    0.0000    0.0010     0     1     2     1
     2    0.3048    0.5080    0.0900    0.0600   90.0000    0.0000    0.0010     1     2     3     1
     3    0.3048    0.5080    0.1500    0.0600   90.0000    0.0000    0.0010     2     3     4     1
     4    0.3048    0.5080    0.2100    0.0600   90.0000    0.0000    0.0010     3     4     5     1
     5    0.3048    0.5080    0.2700    0.0600   90.0000    0.0000    0.0010     4     5     6     1
     6    0.3048    0.5080    0.3300    0.0600   90.0000    0.0000    0.0010     5     6     7     1
     7    0.3048    0.5080    0.3900    0.0600   90.0000    0.0000    0.0010     6     7     8     1
     8    0.3048    0.5080    0.4500    0.0600   90.0000    0.0000    0.0010     7     8     0     1



*****  DATA CARD N0.   1 GN  -1     0     0     0  0.00000E+00  0.00000E+00  0.00000E+00  0.00000E+00  0.00000E+00  0.00000E+00
*****  DATA CARD N0.   2 FR   0     1     0     0  1.00000E+02  1.00000E+01  0.00000E+00  0.00000E+00  0.00000E+00  0.00000E+00
*****  DATA CARD N0.   3 EX   0     1     1     0  1.00000E+00  0.00000E+00  0.00000E+00  0.00000E+00  0.00000E+00  0.00000E+00
*****  DATA CARD N0.   4 RP   0    46    90  1000  0.00000E+00  0.00000E+00  4.00000E+00  4.00000E+00  0.00000E+00  0.00000E+00


                               --------- FREQUENCY --------
                               FREQUENCY=  1.0000E+02 MHZ
                               WAVELENGTH= 2.9980E+00 METERS


                        APPROXIMATE INTEGRATION EMPLOYED FOR SEGMENTS
                        THAT ARE MORE THAN 1.000 WAVELENGTHS APART



                          ------ STRUCTURE IMPEDANCE LOADING ------
                                 THIS STRUCTURE IS NOT LOADED



                            -------- ANTENNA ENVIRONMENT --------
                            FREE SPACE



                             ---------- MATRIX TIMING ----------
                               FILL= 0 msec  FACTOR: 0 msec


                      ----- ANTENNA INPUT PARAMETERS -----
  TAG   SEG       VOLTAGE (VOLTS)         CURRENT (AMPS)         IMPEDANCE (OHMS)        ADMITTANCE (MHOS)     POWER
  NO.   NO.     REAL      IMAGINARY     REAL      IMAGINARY     REAL      IMAGINARY    REAL       IMAGINARY   (WATTS)
   1     1  1.0000E+00  0.0000E+00  3.8542E-07  2.1831E-04  8.0869E+00 -4.5806E+03  3.8542E-07  2.1831E-04  1.9271E-07







                        ----- CURRENTS AND LOCATION -----
                            DISTANCES IN WAVELENGTHS 

   SEG  TAG    COORDINATES OF SEGM CENTER     SEGM    ------------- CURRENT (AMPS) -------------
   No:  No:       X         Y         Z      LENGTH     REAL      IMAGINARY    MAGN        PHASE
     1    1    0.1017    0.1694    0.0100   0.02001  3.8542E-07  2.1831E-04  2.1831E-04   89.899 
     2    1    0.1017    0.1694    0.0300   0.02001  9.0625E-07  2.3467E-04  2.3467E-04   89.779 
     3    1    0.1017    0.1694    0.0500   0.02001  1.2301E-06  1.9510E-04  1.9511E-04   89.639 
     4    1    0.1017    0.1694    0.0700   0.02001  1.3889E-06  1.6240E-04  1.6241E-04   89.510 
     5    1    0.1017    0.1694    0.0901   0.02001  1.3873E-06  1.2991E-04  1.2992E-04   89.388 
     6    1    0.1017    0.1694    0.1101   0.02001  1.2260E-06  9.6421E-05  9.6429E-05   89.272 
     7    1    0.1017    0.1694    0.1301   0.02001  9.0121E-07  6.1364E-05  6.1371E-05   89.159 
     8    1    0.1017    0.1694    0.1501   0.02001  3.8242E-07  2.3064E-05  2.3067E-05   89.050 






                               ---------- POWER BUDGET ---------
                               INPUT POWER   =  1.9271E-07 Watts
                               RADIATED POWER=  1.9271E-07 Watts
                               STRUCTURE LOSS=  0.0000E+00 Watts
                               NETWORK LOSS  =  0.0000E+00 Watts
                               EFFICIENCY    =  100.00 Percent


                         ----- RADIATION PATTERNS -----
 ---- ANGLES -----     ----- POWER GAINS -----       ---- POLARIZATION ----   ---- E(THETA) ----    ----- E(PHI) ------
  THETA      PHI       VERTC   HORIZ   TOTAL       AXIAL      TILT  SENSE   MAGNITUDE    PHASE    MAGNITUDE     PHASE
 DEGREES   DEGREES        DB       DB       DB       RATIO   DEGREES            VOLTS/M   DEGREES     VOLTS/M   DEGREES
    0.00      0.00   -999.99  -999.99  -999.99      0.0000      0.00         0.0000E+00      0.00  0.0000E+00      0.00
    4.00      0.00    -21.68  -999.99   -21.68      0.0000     -0.00 LINEAR  2.8029E-04   -156.98  0.0000E+00      0.00
    8.00      0.00    -15.67  -999.99   -15.67      0.0000     -0.00 LINEAR  5.5944E-04   -154.59  0.0000E+00      0.00
   12.00      0.00    -12.18  -999.99   -12.18      0.0000     -0.00 LINEAR  8.3629E-04   -152.33  0.0000E+00      0.00
   16.00      0.00     -9.72  -999.99    -9.72      0.0000     -0.00 LINEAR  1.1097E-03   -150.20  0.0000E+00      0.00
   20.00      0.00     -7.84  -999.99    -7.84      0.0000     -0.00 LINEAR  1.3785E-03   -148.22  0.0000E+00      0.00
   24.00      0.00     -6.32  -999.99    -6.32      0.0000     -0.00 LINEAR  1.6415E-03   -146.40  0.0000E+00      0.00
   28.00      0.00     -5.06  -999.99    -5.06      0.0000     -0.00 LINEAR  1.8975E-03   -144.74  0.0000E+00      0.00
   32.00      0.00     -4.00  -999.99    -4.00      0.0000     -0.00 LINEAR  2.1453E-03   -143.25  0.0000E+00      0.00
   36.00      0.00     -3.08  -999.99    -3.08      0.0000     -0.00 LINEAR  2.3838E-03   -141.95  0.0000E+00      0.00
   40.00      0.00     -2.29  -999.99    -2.29      0.0000     -0.00 LINEAR  2.6117E-03   -140.83  0.0000E+00      0.00
   44.00      0.00     -1.60  -999.99    -1.60      0.0000     -0.00 LINEAR  2.8277E-03   -139.91  0.0000E+00      0.00
   48.00      0.00     -1.00  -999.99    -1.00      0.0000     -0.00 LINEAR  3.0308E-03   -139.18  0.0000E+00      0.00
   52.00      0.00     -0.47  -999.99    -0.47      0.0000     -0.00 LINEAR  3.2197E-03   -138.66  0.0000E+00      0.00
   56.00      0.00     -0.01  -999.99    -0.01      0.0000     -0.00 LINEAR  3.3934E-03   -138.34  0.0000E+00      0.00
   60.00      0.00      0.38  -999.99     0.38      0.0000     -0.00 LINEAR  3.5507E-03   -138.22  0.0000E+00      0.00
   64.00      0.00      0.71  -999.99     0.71      0.0000     -0.00 LINEAR  3.6908E-03   -138.31  0.0000E+00      0.00
   68.00      0.00      1.00  -999.99     1.00      0.0000     -0.00 LINEAR  3.8126E-03   -138.61  0.0000E+00      0.00
   72.00      0.00      1.23  -999.99     1.23      0.0000     -0.00 LINEAR  3.9154E-03   -139.11  0.0000E+00      0.00
   76.00      0.00      1.41  -999.99     1.41      0.0000     -0.00 LINEAR  3.9984E-03   -139.82  0.0000E+00      0.00
   80.00      0.00      1.55  -999.99     1.55      0.0000     -0.00 LINEAR  4.0611E-03   -140.72  0.0000E+00      0.00
   84.00      0.00      1.63  -999.99     1.63      0.0000     -0.00 LINEAR  4.1031E-03   -141.81  0.0000E+00      0.00
   88.00      0.00      1.68  -999.99     1.68      0.0000     -0.00 LINEAR  4.1240E-03   -143.09  0.0000E+00      0.00
   92.00      0.00      1.68  -999.99     1.68      0.0000     -0.00 LINEAR  4.1237E-03   -144.56  0.0000E+00      0.00
   96.00      0.00      1.63  -999.99     1.63      0.0000     -0.00 LINEAR  4.1022E-03   -146.20  0.0000E+00      0.00
  100.00      0.00      1.54  -999.99     1.54      0.0000     -0.00 LINEAR  4.0597E-03   -148.00  0.0000E+00      0.00
  104.00      0.00      1.41  -999.99     1.41      0.0000     -0.00 LINEAR  3.9965E-03   -149.97  0.0000E+00      0.00
  108.00      0.00      1.22  -999.99     1.22      0.0000     -0.00 LINEAR  3.9130E-03   -152.08  0.0000E+00      0.00
  112.00      0.00      0.99  -999.99     0.99      0.0000     -0.00 LINEAR  3.8098E-03   -154.33  0.0000E+00      0.00
  116.00      0.00      0.71  -999.99     0.71      0.0000     -0.00 LINEAR  3.6877E-03   -156.70  0.0000E+00      0.00
  120.00      0.00      0.37  -999.99     0.37      0.0000     -0.00 LINEAR  3.5473E-03   -159.19  0.0000E+00      0.00
  124.00      0.00     -0.02  -999.99    -0.02      0.0000     -0.00 LINEAR  3.3897E-03   -161.78  0.0000E+00      0.00
  128.00      0.00     -0.48  -999.99    -0.48      0.0000     -0.00 LINEAR  3.2159E-03   -164.47  0.0000E+00      0.00
  132.00      0.00     -1.01  -999.99    -1.01      0.0000     -0.00 LINEAR  3.0269E-03   -167.23  0.0000E+00      0.00
  136.00      0.00     -1.61  -999.99    -1.61      0.0000     -0.00 LINEAR  2.8238E-03   -170.05  0.0000E+00      0.00
  140.00      0.00     -2.30  -999.99    -2.30      0.0000     -0.00 LINEAR  2.6078E-03   -172.92  0.0000E+00      0.00
  144.00      0.00     -3.10  -999.99    -3.10      0.0000     -0.00 LINEAR  2.3801E-03   -175.83  0.0000E+00      0.00
  148.00      0.00     -4.01  -999.99    -4.01      0.0000     -0.00 LINEAR  2.1418E-03   -178.76  0.0000E+00      0.00
  152.00      0.00     -5.08  -999.99    -5.08      0.0000     -0.00 LINEAR  1.8943E-03    178.30  0.0000E+00      0.00
  156.00      0.00     -6.34  -999.99    -6.34      0.0000     -0.00 LINEAR  1.6386E-03    175.37  0.0000E+00      0.00
  160.00      0.00     -7.86  -999.99    -7.86      0.0000     -0.00 LINEAR  1.3760E-03    172.45  0.0000E+00      0.00
  164.00      0.00     -9.74  -999.99    -9.74      0.0000     -0.00 LINEAR  1.1076E-03    169.57  0.0000E+00      0.00
  168.00      0.00    -12.20  -999.99   -12.20      0.0000     -0.00 LINEAR  8.3470E-04    166.74  0.0000E+00      0.00
  172.00      0.00    -15.69  -999.99   -15.69      0.0000     -0.00 LINEAR  5.5836E-04    163.98  0.0000E+00      0.00
  176.00      0.00    -21.69  -999.99   -21.69      0.0000     -0.00 LINEAR  2.7975E-04    161.28  0.0000E+00      0.00
  180.00      0.00   -999.99  -999.99  -999.99      0.0000      0.00         4.0927E-14    -21.32  0.0000E+00      0.00
    0.00      4.00   -999.99  -999.99  -999.99      0.0000      0.00         0.0000E+00      0.00  0.0000E+00      0.00
    4.00      4.00    -21.68  -999.99   -21.68      0.0000     -0.00 LINEAR  2.8029E-04   -156.69  0.0000E+00      0.00
    8.00      4.00    -15.67  -999.99   -15.67      0.0000     -0.00 LINEAR  5.5944E-04   -154.01  0.0000E+00      0.00
   12.00      4.00    -12.18  -999.99   -12.18      0.0000     -0.00 LINEAR  8.3629E-04   -151.46  0.0000E+00      0.00
   16.00      4.00     -9.72  -999.99    -9.72      0.0000     -0.00 LINEAR  1.1097E-03   -149.05  0.0000E+00      0.00
   20.00      4.00     -7.84  -999.99    -7.84      0.0000     -0.00 LINEAR  1.3785E-03   -146.80  0.0000E+00      0.00
   24.00      4.00     -6.32  -999.99    -6.32      0.0000     -0.00 LINEAR  1.6415E-03   -144.70  0.0000E+00      0.00
   28.00      4.00     -5.06  -999.99    -5.06      0.0000     -0.00 LINEAR  1.8975E-03   -142.78  0.0000E+00      0.00
   32.00      4.00     -4.00  -999.99    -4.00      0.0000     -0.00 LINEAR  2.1453E-03   -141.04  0.0000E+00      0.00
   36.00      4.00     -3.08  -999.99    -3.08      0.0000     -0.00 LINEAR  2.3838E-03   -139.50  0.0000E+00      0.00
   40.00      4.00     -2.29  -999.99    -2.29      0.0000     -0.00 LINEAR  2.6117E-03   -138.15  0.0000E+00      0.00
   44.00      4.00     -1.60  -999.99    -1.60      0.0000     -0.00 LINEAR  2.8277E-03   -137.01  0.0000E+00      0.00
   48.00      4.00     -1.00  -999.99    -1.00      0.0000     -0.00 LINEAR  3.0308E-03   -136.09  0.0000E+00      0.00
   52.00      4.00     -0.47  -999.99    -0.47      0.0000     -0.00 LINEAR  3.2197E-03   -135.38  0.0000E+00      0.00
   56.00      4.00     -0.01  -999.99    -0.01      0.0000     -0.00 LINEAR  3.3934E-03   -134.88  0.0000E+00      0.00
   60.00      4.00      0.38  -999.99     0.38      0.0000     -0.00 LINEAR  3.5507E-03   -134.61  0.0000E+00      0.00
   64.00      4.00      0.71  -999.99     0.71      0.0000     -0.00 LINEAR  3.6908E-03   -134.57  0.0000E+00      0.00
   68.00      4.00      1.00  -999.99     1.00      0.0000     -0.00 LINEAR  3.8126E-03   -134.75  0.0000E+00      0.00
   72.00      4.00      1.23  -999.99     1.23      0.0000     -0.00 LINEAR  3.9154E-03   -135.15  0.0000E+00      0.00
   76.00      4.00      1.41  -999.99     1.41      0.0000     -0.00 LINEAR  3.9984E-03   -135.77  0.0000E+00      0.00
   80.00      4.00      1.55  -999.99     1.55      0.0000     -0.00 LINEAR  4.0611E-03   -136.61  0.0000E+00      0.00
   84.00      4.00      1.63  -999.99     1.63      0.0000     -0.00 LINEAR  4.1031E-03   -137.67  0.0000E+00      0.00
   88.00      4.00      1.68  -999.99     1.68      0.0000     -0.00 LINEAR  4.1240E-03   -138.93  0.0000E+00      0.00
   92.00      4.00      1.68  -999.99     1.68      0.0000     -0.00 LINEAR  4.1237E-03   -140.40  0.0000E+00      0.00
   96.00      4.00      1.63  -999.99     1.63      0.0000     -0.00 LINEAR  4.1022E-03   -142.05  0.0000E+00      0.00
  100.00      4.00      1.54  -999.99     1.54      0.0000     -0.00 LINEAR  4.0597E-03   -143.90  0.0000E+00      0.00
  104.00      4.00      1.41  -999.99     1.41      0.0000     -0.00 LINEAR  3.9965E-03   -145.92  0.0000E+00      0.00
  108.00      4.00      1.22  -999.99     1.22      0.0000     -0.00 LINEAR  3.9130E-03   -148.12  0.0000E+00      0.00
  112.00      4.00      0.99  -999.99     0.99      0.0000     -0.00 LINEAR  3.8098E-03   -150.46  0.0000E+00      0.00
  116.00      4.00      0.71  -999.99     0.71      0.0000     -0.00 LINEAR  3.6877E-03   -152.96  0.0000E+00      0.00
  120.00      4.00      0.37  -999.99     0.37      0.0000     -0.00 LINEAR  3.5473E-03   -155.58  0.0000E+00      0.00
  124.00      4.00     -0.02  -999.99    -0.02      0.0000     -0.00 LINEAR  3.3897E-03   -158.33  0.0000E+00      0.00
  128.00      4.00     -0.48  -999.99    -0.48      0.0000     -0.00 LINEAR  3.2159E-03   -161.18  0.0000E+00      0.00
  132.00      4.00     -1.01  -999.99    -1.01      0.0000     -0.00 LINEAR  3.0269E-03   -164.13  0.0000E+00      0.00
  136.00      4.00     -1.61  -999.99    -1.61      0.0000     -0.00 LINEAR  2.8238E-03   -167.15  0.0000E+00      0.00
  140.00      4.00     -2.30  -999.99    -2.30      0.0000     -0.00 LINEAR  2.6078E-03   -170.24  0.0000E+00      0.00
  144.00      4.00     -3.10  -999.99    -3.10      0.0000     -0.00 LINEAR  2.3801E-03   -173.38  0.0000E+00      0.00
  148.00      4.00     -4.01  -999.99    -4.01      0.0000     -0.00 LINEAR  2.1418E-03   -176.55  0.0000E+00      0.00
  152.00      4.00     -5.08  -999.99    -5.08      0.0000     -0.00 LINEAR  1.8943E-03   -179.75  0.0000E+00      0.00
  156.00      4.00     -6.34  -999.99    -6.34      0.0000     -0.00 LINEAR  1.6386E-03    177.06  0.0000E+00      0.00
  160.00      4.00     -7.86  -999.99    -7.86      0.0000     -0.00 LINEAR  1.3760E-03    173.88  0.0000E+00      0.00
  164.00      4.00     -9.74  -999.99    -9.74      0.0000     -0.00 LINEAR  1.1076E-03    170.72  0.0000E+00      0.00
  168.00      4.00    -12.20  -999.99   -12.20      0.0000     -0.00 LINEAR  8.3470E-04    167.61  0.0000E+00      0.00
  172.00      4.00    -15.69  -999.99   -15.69      0.0000     -0.00 LINEAR  5.5836E-04    164.56  0.0000E+00      0.00
  176.00      4.00    -21.69  -999.99   -21.69      0.0000     -0.00 LINEAR  2.7975E-04    161.58  0.0000E+00      0.00
  180.00      4.00   -999.99  -999.99  -999.99      0.0000      0.00         4.0927E-14    -21.32  0.0000E+00      0.00
    0.00      8.00   -999.99  -999.99  -999.99      0.0000      0.00         0.0000E+00      0.00  0.0000E+00      0.00
    4.00      8.00    -21.68  -999.99   -21.68      0.0000     -0.00 LINEAR  2.8029E-04   -156.41  0.0000E+00      0.00
    8.00      8.00    -15.67  -999.99   -15.67      0.0000     -0.00 LINEAR  5.5944E-04   -153.46  0.0000E+00      0.00
   12.00      8.00    -12.18  -999.99   -12.18      0.0000     -0.00 LINEAR  8.3629E-04   -150.64  0.0000E+00      0.00
   16.00      8.00     -9.72  -999.99    -9.72      0.0000     -0.00 LINEAR  1.1097E-03   -147.96  0.0000E+00      0.00
   20.00      8.00     -7.84  -999.99    -7.84      0.0000     -0.00 LINEAR  1.3785E-03   -145.44  0.0000E+00      0.00
   24.00      8.00     -6.32  -999.99    -6.32      0.0000     -0.00 LINEAR  1.6415E-03   -143.09  0.0000E+00      0.00
   28.00      8.00     -5.06  -999.99    -5.06      0.0000     -0.00 LINEAR  1.8975E-03   -140.92  0.0000E+00      0.00
   32.00      8.00     -4.00  -999.99    -4.00      0.0000     -0.00 LINEAR  2.1453E-03   -138.94  0.0000E+00      0.00
   36.00      8.00     -3.08  -999.99    -3.08      0.0000     -0.00 LINEAR  2.3838E-03   -137.17  0.0000E+00      0.00
   40.00      8.00     -2.29  -999.99    -2.29      0.0000     -0.00 LINEAR  2.6117E-03   -135.60  0.0000E+00      0.00
   44.00      8.00     -1.60  -999.99    -1.60      0.0000     -0.00 LINEAR  2.8277E-03   -134.26  0.0000E+00      0.00
   48.00      8.00     -1.00  -999.99    -1.00      0.0000     -0.00 LINEAR  3.0308E-03   -133.14  0.0000E+00      0.00
   52.00      8.00     -0.47  -999.99    -0.47      0.0000     -0.00 LINEAR  3.2197E-03   -132.25  0.0000E+00      0.00
   56.00      8.00     -0.01  -999.99    -0.01      0.0000     -0.00 LINEAR  3.3934E-03   -131.59  0.0000E+00      0.00
   60.00      8.00      0.38  -999.99     0.38      0.0000     -0.00 LINEAR  3.5507E-03   -131.18  0.0000E+00      0.00
   64.00      8.00      0.71  -999.99     0.71      0.0000     -0.00 LINEAR  3.6908E-03   -131.00  0.0000E+00      0.00
   68.00      8.00      1.00  -999.99     1.00      0.0000     -0.00 LINEAR  3.8126E-03   -131.07  0.0000E+00      0.00
   72.00      8.00      1.23  -999.99     1.23      0.0000     -0.00 LINEAR  3.9154E-03   -131.38  0.0000E+00      0.00
   76.00      8.00      1.41  -999.99     1.41      0.0000     -0.00 LINEAR  3.9984E-03   -131.92  0.0000E+00      0.00
   80.00      8.00      1.55  -999.99     1.55      0.0000     -0.00 LINEAR  4.0611E-03   -132.71  0.0000E+00      0.00
   84.00      8.00      1.63  -999.99     1.63      0.0000     -0.00 LINEAR  4.1031E-03   -133.72  0.0000E+00      0.00
   88.00      8.00      1.68  -999.99     1.68      0.0000     -0.00 LINEAR  4.1240E-03   -134.97  0.0000E+00      0.00
   92.00      8.00      1.68  -999.99     1.68      0.0000     -0.00 LINEAR  4.1237E-03   -136.43  0.0000E+00      0.00
   96.00      8.00      1.63  -999.99     1.63      0.0000     -0.00 LINEAR  4.1022E-03   -138.11  0.0000E+00      0.00
  100.00      8.00      1.54  -999.99     1.54      0.0000     -0.00 LINEAR  4.0597E-03   -139.99  0.0000E+00      0.00
  104.00      8.00      1.41  -999.99     1.41      0.0000     -0.00 LINEAR  3.9965E-03   -142.07  0.0000E+00      0.00
  108.00      8.00      1.22  -999.99     1.22      0.0000     -0.00 LINEAR  3.9130E-03   -144.34  0.0000E+00      0.00
  112.00      8.00      0.99  -999.99     0.99      0.0000     -0.00 LINEAR  3.8098E-03   -146.78  0.0000E+00      0.00
  116.00      8.00      0.71  -999.99     0.71      0.0000     -0.00 LINEAR  3.6877E-03   -149.39  0.0000E+00      0.00
  120.00      8.00      0.37  -999.99     0.37      0.0000     -0.00 LINEAR  3.5473E-03   -152.15  0.0000E+00      0.00
  124.00      8.00     -0.02  -999.99    -0.02      0.0000     -0.00 LINEAR  3.3897E-03   -155.04  0.0000E+00      0.00
  128.00      8.00     -0.48  -999.99    -0.48      0.0000     -0.00 LINEAR  3.2159E-03   -158.06  0.0000E+00      0.00
  132.00      8.00     -1.01  -999.99    -1.01      0.0000     -0.00 LINEAR  3.0269E-03   -161.18  0.0000E+00      0.00
  136.00      8.00     -1.61  -999.99    -1.61      0.0000     -0.00 LINEAR  2.8238E-03   -164.40  0.0000E+00      0.00
  140.00      8.00     -2.30  -999.99    -2.30      0.0000     -0.00 LINEAR  2.6078E-03   -167.69  0.0000E+00      0.00
  144.00      8.00     -3.10  -999.99    -3.10      0.0000     -0.00 LINEAR  2.3801E-03   -171.05  0.0000E+00      0.00
  148.00      8.00     -4.01  -999.99    -4.01      0.0000     -0.00 LINEAR  2.1418E-03   -174.45  0.0000E+00      0.00
  152.00      8.00     -5.08  -999.99    -5.08      0.0000     -0.00 LINEAR  1.8943E-03   -177.88  0.0000E+00      0.00
  156.00      8.00     -6.34  -999.99    -6.34      0.0000     -0.00 LINEAR  1.6386E-03    178.67  0.0000E+00      0.00
  160.00      8.00     -7.86  -999.99    -7.86      0.0000     -0.00 LINEAR  1.3760E-03    175.23  0.0000E+00      0.00
  164.00      8.00     -9.74  -999.99    -9.74      0.0000     -0.00 LINEAR  1.1076E-03    171.82  0.0000E+00      0.00
  168.00      8.00    -12.20  -999.99   -12.20      0.0000     -0.00 LINEAR  8.3470E-04    168.44  0.0000E+00      0.00
  172.00      8.00    -15.69  -999.99   -15.69      0.0000     -0.00 LINEAR  5.5836E-04    165.11  0.0000E+00      0.00
  176.00      8.00    -21.69  -999.99   -21.69      0.0000     -0.00 LINEAR  2.7975E-04    161.85  0.0000E+00      0.00
  180.00      8.00   -999.99  -999.99  -999.99      0.0000      0.00         4.0927E-14    -21.32  0.0000E+00      0.00
    0.00     12.00   -999.99  -999.99  -999.99      0.0000      0.00         0.0000E+00      0.00  0.0000E+00      0.00
    4.00     12.00    -21.68  -999.99   -21.68      0.0000     -0.00 LINEAR  2.8029E-04   -156.15  0.0000E+00      0.00
    8.00     12.00    -15.67  -999.99   -15.67      0.0000     -0.00 LINEAR  5.5944E-04   -152.94  0.0000E+00      0.00
   12.00     12.00    -12.18  -999.99   -12.18      0.0000     -0.00 LINEAR  8.3629E-04   -149.86  0.0000E+00      0.00
   16.00     12.00     -9.72  -999.99    -9.72      0.0000     -0.00 LINEAR  1.1097E-03   -146.93  0.0000E+00      0.00
   20.00     12.00     -7.84  -999.99    -7.84      0.0000     -0.00 LINEAR  1.3785E-03   -144.16  0.0000E+00      0.00
   24.00     12.00     -6.32  -999.99    -6.32      0.0000     -0.00 LINEAR  1.6415E-03   -141.56  0.0000E+00      0.00
   28.00     12.00     -5.06  -999.99    -5.06      0.0000     -0.00 LINEAR  1.8975E-03   -139.16  0.0000E+00      0.00
   32.00     12.00     -4.00  -999.99    -4.00      0.0000     -0.00 LINEAR  2.1453E-03   -136.95  0.0000E+00      0.00
   36.00     12.00     -3.08  -999.99    -3.08      0.0000     -0.00 LINEAR  2.3838E-03   -134.96  0.0000E+00      0.00
   40.00     12.00     -2.29  -999.99    -2.29      0.0000     -0.00 LINEAR  2.6117E-03   -133.19  0.0000E+00      0.00
   44.00     12.00     -1.60  -999.99    -1.60      0.0000     -0.00 LINEAR  2.8277E-03   -131.65  0.0000E+00      0.00
   48.00     12.00     -1.00  -999.99    -1.00      0.0000     -0.00 LINEAR  3.0308E-03   -130.35  0.0000E+00      0.00
   52.00     12.00     -0.47  -999.99    -0.47      0.0000     -0.00 LINEAR  3.2197E-03   -129.29  0.0000E+00      0.00
   56.00     12.00     -0.01  -999.99    -0.01      0.0000     -0.00 LINEAR  3.3934E-03   -128.49  0.0000E+00      0.00
   60.00     12.00      0.38  -999.99     0.38      0.0000     -0.00 LINEAR  3.5507E-03   -127.93  0.0000E+00      0.00
   64.00     12.00      0.71  -999.99     0.71      0.0000     -0.00 LINEAR  3.6908E-03   -127.63  0.0000E+00      0.00
   68.00     12.00      1.00  -999.99     1.00      0.0000     -0.00 LINEAR  3.8126E-03   -127.59  0.0000E+00      0.00
   72.00     12.00      1.23  -999.99     1.23      0.0000     -0.00 LINEAR  3.9154E-03   -127.81  0.0000E+00      0.00
   76.00     12.00      1.41  -999.99     1.41      0.0000     -0.00 LINEAR  3.9984E-03   -128.29  0.0000E+00      0.00
   80.00     12.00      1.55  -999.99     1.55      0.0000     -0.00 LINEAR  4.0611E-03   -129.01  0.0000E+00      0.00
   84.00     12.00      1.63  -999.99     1.63      0.0000     -0.00 LINEAR  4.1031E-03   -129.99  0.0000E+00      0.00
   88.00     12.00      1.68  -999.99     1.68      0.0000     -0.00 LINEAR  4.1240E-03   -131.22  0.0000E+00      0.00
   92.00     12.00      1.68  -999.99     1.68      0.0000     -0.00 LINEAR  4.1237E-03   -132.68  0.0000E+00      0.00
   96.00     12.00      1.63  -999.99     1.63      0.0000     -0.00 LINEAR  4.1022E-03   -134.38  0.0000E+00      0.00
  100.00     12.00      1.54  -999.99     1.54      0.0000     -0.00 LINEAR  4.0597E-03   -136.30  0.0000E+00      0.00
  104.00     12.00      1.41  -999.99     1.41      0.0000     -0.00 LINEAR  3.9965E-03   -138.44  0.0000E+00      0.00
  108.00     12.00      1.22  -999.99     1.22      0.0000     -0.00 LINEAR  3.9130E-03   -140.78  0.0000E+00      0.00
  112.00     12.00      0.99  -999.99     0.99      0.0000     -0.00 LINEAR  3.8098E-03   -143.31  0.0000E+00      0.00
  116.00     12.00      0.71  -999.99     0.71      0.0000     -0.00 LINEAR  3.6877E-03   -146.02  0.0000E+00      0.00
  120.00     12.00      0.37  -999.99     0.37      0.0000     -0.00 LINEAR  3.5473E-03   -148.90  0.0000E+00      0.00
  124.00     12.00     -0.02  -999.99    -0.02      0.0000     -0.00 LINEAR  3.3897E-03   -151.93  0.0000E+00      0.00
  128.00     12.00     -0.48  -999.99    -0.48      0.0000     -0.00 LINEAR  3.2159E-03   -155.10  0.0000E+00      0.00
  132.00     12.00     -1.01  -999.99    -1.01      0.0000     -0.00 LINEAR  3.0269E-03   -158.39  0.0000E+00      0.00
  136.00     12.00     -1.61  -999.99    -1.61      0.0000     -0.00 LINEAR  2.8238E-03   -161.79  0.0000E+00      0.00
  140.00     12.00     -2.30  -999.99    -2.30      0.0000     -0.00 LINEAR  2.6078E-03   -165.28  0.0000E+00      0.00
  144.00     12.00     -3.10  -999.99    -3.10      0.0000     -0.00 LINEAR  2.3801E-03   -168.85  0.0000E+00      0.00
  148.00     12.00     -4.01  -999.99    -4.01      0.0000     -0.00 LINEAR  2.1418E-03   -172.47  0.0000E+00      0.00
  152.00     12.00     -5.08  -999.99    -5.08      0.0000     -0.00 LINEAR  1.8943E-03   -176.12  0.0000E+00      0.00
  156.00     12.00     -6.34  -999.99    -6.34      0.0000     -0.00 LINEAR  1.6386E-03   -179.80  0.0000E+00      0.00
  160.00     12.00     -7.86  -999.99    -7.86      0.0000     -0.00 LINEAR  1.3760E-03    176.52  0.0000E+00      0.00
  164.00     12.00     -9.74  -999.99    -9.74      0.0000     -0.00 LINEAR  1.1076E-03    172.85  0.0000E+00      0.00
  168.00     12.00    -12.20  -999.99   -12.20      0.0000     -0.00 LINEAR  8.3470E-04    169.22  0.0000E+00      0.00
  172.00     12.00    -15.69  -999.99   -15.69      0.0000     -0.00 LINEAR  5.5836E-04    165.63  0.0000E+00      0.00
  176.00     12.00    -21.69  -999.99   -21.69      0.0000     -0.00 LINEAR  2.7975E-04    162.11  0.0000E+00      0.00
  180.00     12.00   -999.99  -999.99  -999.99      0.0000      0.00         4.0927E-14    -21.32  0.0000E+00      0.00
    0.00     16.00   -999.99  -999.99  -999.99      0.0000      0.00         0.0000E+00      0.00  0.0000E+00      0.00
    4.00     16.00    -21.68  -999.99   -21.68      0.0000     -0.00 LINEAR  2.8029E-04   -155.91  0.0000E+00      0.00
    8.00     16.00    -15.67  -999.99   -15.67      0.0000     -0.00 LINEAR  5.5944E-04   -152.45  0.0000E+00      0.00
   12.00     16.00    -12.18  -999.99   -12.18      0.0000     -0.00 LINEAR  8.3629E-04   -149.13  0.0000E+00      0.00
   16.00     16.00     -9.72  -999.99    -9.72      0.0000     -0.00 LINEAR  1.1097E-03   -145.96  0.0000E+00      0.00
   20.00     16.00     -7.84  -999.99    -7.84      0.0000     -0.00 LINEAR  1.3785E-03   -142.95  0.0000E+00      0.00
   24.00     16.00     -6.32  -999.99    -6.32      0.0000     -0.00 LINEAR  1.6415E-03   -140.13  0.0000E+00      0.00
   28.00     16.00     -5.06  -999.99    -5.06      0.0000     -0.00 LINEAR  1.8975E-03   -137.51  0.0000E+00      0.00
   32.00     16.00     -4.00  -999.99    -4.00      0.0000     -0.00 LINEAR  2.1453E-03   -135.09  0.0000E+00      0.00
   36.00     16.00     -3.08  -999.99    -3.08      0.0000     -0.00 LINEAR  2.3838E-03   -132.90  0.0000E+00      0.00
   40.00     16.00     -2.29  -999.99    -2.29      0.0000     -0.00 LINEAR  2.6117E-03   -130.93  0.0000E+00      0.00
   44.00     16.00     -1.60  -999.99    -1.60      0.0000     -0.00 LINEAR  2.8277E-03   -129.21  0.0000E+00      0.00
   48.00     16.00     -1.00  -999.99    -1.00      0.0000     -0.00 LINEAR  3.0308E-03   -127.74  0.0000E+00      0.00
   52.00     16.00     -0.47  -999.99    -0.47      0.0000     -0.00 LINEAR  3.2197E-03   -126.53  0.0000E+00      0.00
   56.00     16.00     -0.01  -999.99    -0.01      0.0000     -0.00 LINEAR  3.3934E-03   -125.57  0.0000E+00      0.00
   60.00     16.00      0.38  -999.99     0.38      0.0000     -0.00 LINEAR  3.5507E-03   -124.89  0.0000E+00      0.00
   64.00     16.00      0.71  -999.99     0.71      0.0000     -0.00 LINEAR  3.6908E-03   -124.48  0.0000E+00      0.00
   68.00     16.00      1.00  -999.99     1.00      0.0000     -0.00 LINEAR  3.8126E-03   -124.34  0.0000E+00      0.00
   72.00     16.00      1.23  -999.99     1.23      0.0000     -0.00 LINEAR  3.9154E-03   -124.47  0.0000E+00      0.00
   76.00     16.00      1.41  -999.99     1.41      0.0000     -0.00 LINEAR  3.9984E-03   -124.88  0.0000E+00      0.00
   80.00     16.00      1.55  -999.99     1.55      0.0000     -0.00 LINEAR  4.0611E-03   -125.55  0.0000E+00      0.00
   84.00     16.00      1.63  -999.99     1.63      0.0000     -0.00 LINEAR  4.1031E-03   -126.50  0.0000E+00      0.00
   88.00     16.00      1.68  -999.99     1.68      0.0000     -0.00 LINEAR  4.1240E-03   -127.71  0.0000E+00      0.00
   92.00     16.00      1.68  -999.99     1.68      0.0000     -0.00 LINEAR  4.1237E-03   -129.17  0.0000E+00      0.00
   96.00     16.00      1.63  -999.99     1.63      0.0000     -0.00 LINEAR  4.1022E-03   -130.89  0.0000E+00      0.00
  100.00     16.00      1.54  -999.99     1.54      0.0000     -0.00 LINEAR  4.0597E-03   -132.84  0.0000E+00      0.00
  104.00     16.00      1.41  -999.99     1.41      0.0000     -0.00 LINEAR  3.9965E-03   -135.03  0.0000E+00      0.00
  108.00     16.00      1.22  -999.99     1.22      0.0000     -0.00 LINEAR  3.9130E-03   -137.43  0.0000E+00      0.00
  112.00     16.00      0.99  -999.99     0.99      0.0000     -0.00 LINEAR  3.8098E-03   -140.05  0.0000E+00      0.00
  116.00     16.00      0.71  -999.99     0.71      0.0000     -0.00 LINEAR  3.6877E-03   -142.86  0.0000E+00      0.00
  120.00     16.00      0.37  -999.99     0.37      0.0000     -0.00 LINEAR  3.5473E-03   -145.86  0.0000E+00      0.00
  124.00     16.00     -0.02  -999.99    -0.02      0.0000     -0.00 LINEAR  3.3897E-03   -149.02  0.0000E+00      0.00
  128.00     16.00     -0.48  -999.99    -0.48      0.0000     -0.00 LINEAR  3.2159E-03   -152.33  0.0000E+00      0.00
  132.00     16.00     -1.01  -999.99    -1.01      0.0000     -0.00 LINEAR  3.0269E-03   -155.78  0.0000E+00      0.00
  136.00     16.00     -1.61  -999.99    -1.61      0.0000     -0.00 LINEAR  2.8238E-03   -159.35  0.0000E+00      0.00
  140.00     16.00     -2.30  -999.99    -2.30      0.0000     -0.00 LINEAR  2.6078E-03   -163.02  0.0000E+00      0.00
  144.00     16.00     -3.10  -999.99    -3.10      0.0000     -0.00 LINEAR  2.3801E-03   -166.78  0.0000E+00      0.00
  148.00     16.00     -4.01  -999.99    -4.01      0.0000     -0.00 LINEAR  2.1418E-03   -170.60  0.0000E+00      0.00
  152.00     16.00     -5.08  -999.99    -5.08      0.0000     -0.00 LINEAR  1.8943E-03   -174.47  0.0000E+00      0.00
  156.00     16.00     -6.34  -999.99    -6.34      0.0000     -0.00 LINEAR  1.6386E-03   -178.37  0.0000E+00      0.00
  160.00     16.00     -7.86  -999.99    -7.86      0.0000     -0.00 LINEAR  1.3760E-03    177.72  0.0000E+00      0.00
  164.00     16.00     -9.74  -999.99    -9.74      0.0000     -0.00 LINEAR  1.1076E-03    173.82  0.0000E+00      0.00
  168.00     16.00    -12.20  -999.99   -12.20      0.0000     -0.00 LINEAR  8.3470E-04    169.95  0.0000E+00      0.00
  172.00     16.00    -15.69  -999.99   -15.69      0.0000     -0.00 LINEAR  5.5836E-04    166.12  0.0000E+00      0.00
  176.00     16.00    -21.69  -999.99   -21.69      0.0000     -0.00 LINEAR  2.7975E-04    162.36  0.0000E+00      0.00
  180.00     16.00   -999.99  -999.99  -999.99      0.0000      0.00         4.0927E-14    -21.32  0.0000E+00      0.00
    0.00     20.00   -999.99  -999.99  -999.99      0.0000      0.00         0.0000E+00      0.00  0.0000E+00      0.00
    4.00     20.00    -21.68  -999.99   -21.68      0.0000     -0.00 LINEAR  2.8029E-04   -155.68  0.0000E+00      0.00
    8.00     20.00    -15.67  -999.99   -15.67      0.0000     -0.00 LINEAR  5.5944E-04   -152.00  0.0000E+00      0.00
   12.00     20.00    -12.18  -999.99   -12.18      0.0000     -0.00 LINEAR  8.3629E-04   -148.45  0.0000E+00      0.00
   16.00     20.00     -9.72  -999.99    -9.72      0.0000     -0.00 LINEAR  1.1097E-03   -145.06  0.0000E+00      0.00
   20.00     20.00     -7.84  -999.99    -7.84      0.0000     -0.00 LINEAR  1.3785E-03   -141.84  0.0000E+00      0.00
   24.00     20.00     -6.32  -999.99    -6.32      0.0000     -0.00 LINEAR  1.6415E-03   -138.81  0.0000E+00      0.00
   28.00     20.00     -5.06  -999.99    -5.06      0.0000     -0.00 LINEAR  1.8975E-03   -135.98  0.0000E+00      0.00
   32.00     20.00     -4.00  -999.99    -4.00      0.0000     -0.00 LINEAR  2.1453E-03   -133.37  0.0000E+00      0.00
   36.00     20.00     -3.08  -999.99    -3.08      0.0000     -0.00 LINEAR  2.3838E-03   -130.98  0.0000E+00      0.00
   40.00     20.00     -2.29  -999.99    -2.29      0.0000     -0.00 LINEAR  2.6117E-03   -128.84  0.0000E+00      0.00
   44.00     20.00     -1.60  -999.99    -1.60      0.0000     -0.00 LINEAR  2.8277E-03   -126.95  0.0000E+00      0.00
   48.00     20.00     -1.00  -999.99    -1.00      0.0000     -0.00 LINEAR  3.0308E-03   -125.32  0.0000E+00      0.00
   52.00     20.00     -0.47  -999.99    -0.47      0.0000     -0.00 LINEAR  3.2197E-03   -123.96  0.0000E+00      0.00
   56.00     20.00     -0.01  -999.99    -0.01      0.0000     -0.00 LINEAR  3.3934E-03   -122.87  0.0000E+00      0.00
   60.00     20.00      0.38  -999.99     0.38      0.0000     -0.00 LINEAR  3.5507E-03   -122.07  0.0000E+00      0.00
   64.00     20.00      0.71  -999.99     0.71      0.0000     -0.00 LINEAR  3.6908E-03   -121.55  0.0000E+00      0.00
   68.00     20.00      1.00  -999.99     1.00      0.0000     -0.00 LINEAR  3.8126E-03   -121.31  0.0000E+00      0.00
   72.00     20.00      1.23  -999.99     1.23      0.0000     -0.00 LINEAR  3.9154E-03   -121.37  0.0000E+00      0.00
   76.00     20.00      1.41  -999.99     1.41      0.0000     -0.00 LINEAR  3.9984E-03   -121.71  0.0000E+00      0.00
   80.00     20.00      1.55  -999.99     1.55      0.0000     -0.00 LINEAR  4.0611E-03   -122.34  0.0000E+00      0.00
   84.00     20.00      1.63  -999.99     1.63      0.0000     -0.00 LINEAR  4.1031E-03   -123.26  0.0000E+00      0.00
   88.00     20.00      1.68  -999.99     1.68      0.0000     -0.00 LINEAR  4.1240E-03   -124.45  0.0000E+00      0.00
   92.00     20.00      1.68  -999.99     1.68      0.0000     -0.00 LINEAR  4.1237E-03   -125.91  0.0000E+00      0.00
   96.00     20.00      1.63  -999.99     1.63      0.0000     -0.00 LINEAR  4.1022E-03   -127.64  0.0000E+00      0.00
  100.00     20.00      1.54  -999.99     1.54      0.0000     -0.00 LINEAR  4.0597E-03   -129.63  0.0000E+00      0.00
  104.00     20.00      1.41  -999.99     1.41      0.0000     -0.00 LINEAR  3.9965E-03   -131.86  0.0000E+00      0.00
  108.00     20.00      1.22  -999.99     1.22      0.0000     -0.00 LINEAR  3.9130E-03   -134.33  0.0000E+00      0.00
  112.00     20.00      0.99  -999.99     0.99      0.0000     -0.00 LINEAR  3.8098E-03   -137.03  0.0000E+00      0.00
  116.00     20.00      0.71  -999.99     0.71      0.0000     -0.00 LINEAR  3.6877E-03   -139.93  0.0000E+00      0.00
  120.00     20.00      0.37  -999.99     0.37      0.0000     -0.00 LINEAR  3.5473E-03   -143.03  0.0000E+00      0.00
  124.00     20.00     -0.02  -999.99    -0.02      0.0000     -0.00 LINEAR  3.3897E-03   -146.32  0.0000E+00      0.00
  128.00     20.00     -0.48  -999.99    -0.48      0.0000     -0.00 LINEAR  3.2159E-03   -149.76  0.0000E+00      0.00
  132.00     20.00     -1.01  -999.99    -1.01      0.0000     -0.00 LINEAR  3.0269E-03   -153.36  0.0000E+00      0.00
  136.00     20.00     -1.61  -999.99    -1.61      0.0000     -0.00 LINEAR  2.8238E-03   -157.09  0.0000E+00      0.00
  140.00     20.00     -2.30  -999.99    -2.30      0.0000     -0.00 LINEAR  2.6078E-03   -160.93  0.0000E+00      0.00
  144.00     20.00     -3.10  -999.99    -3.10      0.0000     -0.00 LINEAR  2.3801E-03   -164.86  0.0000E+00      0.00
  148.00     20.00     -4.01  -999.99    -4.01      0.0000     -0.00 LINEAR  2.1418E-03   -168.88  0.0000E+00      0.00
  152.00     20.00     -5.08  -999.99    -5.08      0.0000     -0.00 LINEAR  1.8943E-03   -172.94  0.0000E+00      0.00
  156.00     20.00     -6.34  -999.99    -6.34      0.0000     -0.00 LINEAR  1.6386E-03   -177.05  0.0000E+00      0.00
  160.00     20.00     -7.86  -999.99    -7.86      0.0000     -0.00 LINEAR  1.3760E-03    178.83  0.0000E+00      0.00
  164.00     20.00     -9.74  -999.99    -9.74      0.0000     -0.00 LINEAR  1.1076E-03    174.72  0.0000E+00      0.00
  168.00     20.00    -12.20  -999.99   -12.20      0.0000     -0.00 LINEAR  8.3470E-04    170.62  0.0000E+00      0.00
  172.00     20.00    -15.69  -999.99   -15.69      0.0000     -0.00 LINEAR  5.5836E-04    166.57  0.0000E+00      0.00
  176.00     20.00    -21.69  -999.99   -21.69      0.0000     -0.00 LINEAR  2.7975E-04    162.59  0.0000E+00      0.00
  180.00     20.00   -999.99  -999.99  -999.99      0.0000      0.00         4.0927E-14    -21.32  0.0000E+00      0.00
    0.00     24.00   -999.99  -999.99  -999.99      0.0000      0.00         0.0000E+00      0.00  0.0000E+00      0.00
    4.00     24.00    -21.68  -999.99   -21.68      0.0000     -0.00 LINEAR  2.8029E-04   -155.47  0.0000E+00      0.00
    8.00     24.00    -15.67  -999.99   -15.67      0.0000     -0.00 LINEAR  5.5944E-04   -151.58  0.0000E+00      0.00
   12.00     24.00    -12.18  -999.99   -12.18      0.0000     -0.00 LINEAR  8.3629E-04   -147.83  0.0000E+00      0.00
   16.00     24.00     -9.72  -999.99    -9.72      0.0000     -0.00 LINEAR  1.1097E-03   -144.23  0.0000E+00      0.00
   20.00     24.00     -7.84  -999.99    -7.84      0.0000     -0.00 LINEAR  1.3785E-03   -140.82  0.0000E+00      0.00
   24.00     24.00     -6.32  -999.99    -6.32      0.0000     -0.00 LINEAR  1.6415E-03   -137.59  0.0000E+00      0.00
   28.00     24.00     -5.06  -999.99    -5.06      0.0000     -0.00 LINEAR  1.8975E-03   -134.57  0.0000E+00      0.00
   32.00     24.00     -4.00  -999.99    -4.00      0.0000     -0.00 LINEAR  2.1453E-03   -131.78  0.0000E+00      0.00
   36.00     24.00     -3.08  -999.99    -3.08      0.0000     -0.00 LINEAR  2.3838E-03   -129.22  0.0000E+00      0.00
   40.00     24.00     -2.29  -999.99    -2.29      0.0000     -0.00 LINEAR  2.6117E-03   -126.92  0.0000E+00      0.00
   44.00     24.00     -1.60  -999.99    -1.60      0.0000     -0.00 LINEAR  2.8277E-03   -124.87  0.0000E+00      0.00
   48.00     24.00     -1.00  -999.99    -1.00      0.0000     -0.00 LINEAR  3.0308E-03   -123.10  0.0000E+00      0.00
   52.00     24.00     -0.47  -999.99    -0.47      0.0000     -0.00 LINEAR  3.2197E-03   -121.60  0.0000E+00      0.00
   56.00     24.00     -0.01  -999.99    -0.01      0.0000     -0.00 LINEAR  3.3934E-03   -120.39  0.0000E+00      0.00
   60.00     24.00      0.38  -999.99     0.38      0.0000     -0.00 LINEAR  3.5507E-03   -119.48  0.0000E+00      0.00
   64.00     24.00      0.71  -999.99     0.71      0.0000     -0.00 LINEAR  3.6908E-03   -118.86  0.0000E+00      0.00
   68.00     24.00      1.00  -999.99     1.00      0.0000     -0.00 LINEAR  3.8126E-03   -118.54  0.0000E+00      0.00
   72.00     24.00      1.23  -999.99     1.23      0.0000     -0.00 LINEAR  3.9154E-03   -118.52  0.0000E+00      0.00
   76.00     24.00      1.41  -999.99     1.41      0.0000     -0.00 LINEAR  3.9984E-03   -118.81  0.0000E+00      0.00
   80.00     24.00      1.55  -999.99     1.55      0.0000     -0.00 LINEAR  4.0611E-03   -119.40  0.0000E+00      0.00
   84.00     24.00      1.63  -999.99     1.63      0.0000     -0.00 LINEAR  4.1031E-03   -120.28  0.0000E+00      0.00
   88.00     24.00      1.68  -999.99     1.68      0.0000     -0.00 LINEAR  4.1240E-03   -121.46  0.0000E+00      0.00
   92.00     24.00      1.68  -999.99     1.68      0.0000     -0.00 LINEAR  4.1237E-03   -122.92  0.0000E+00      0.00
   96.00     24.00      1.63  -999.99     1.63      0.0000     -0.00 LINEAR  4.1022E-03   -124.67  0.0000E+00      0.00
  100.00     24.00      1.54  -999.99     1.54      0.0000     -0.00 LINEAR  4.0597E-03   -126.69  0.0000E+00      0.00
  104.00     24.00      1.41  -999.99     1.41      0.0000     -0.00 LINEAR  3.9965E-03   -128.96  0.0000E+00      0.00
  108.00     24.00      1.22  -999.99     1.22      0.0000     -0.00 LINEAR  3.9130E-03   -131.49  0.0000E+00      0.00
  112.00     24.00      0.99  -999.99     0.99      0.0000     -0.00 LINEAR  3.8098E-03   -134.26  0.0000E+00      0.00
  116.00     24.00      0.71  -999.99     0.71      0.0000     -0.00 LINEAR  3.6877E-03   -137.24  0.0000E+00      0.00
  120.00     24.00      0.37  -999.99     0.37      0.0000     -0.00 LINEAR  3.5473E-03   -140.44  0.0000E+00      0.00
  124.00     24.00     -0.02  -999.99    -0.02      0.0000     -0.00 LINEAR  3.3897E-03   -143.84  0.0000E+00      0.00
  128.00     24.00     -0.48  -999.99    -0.48      0.0000     -0.00 LINEAR  3.2159E-03   -147.41  0.0000E+00      0.00
  132.00     24.00     -1.01  -999.99    -1.01      0.0000     -0.00 LINEAR  3.0269E-03   -151.14  0.0000E+00      0.00
  136.00     24.00     -1.61  -999.99    -1.61      0.0000     -0.00 LINEAR  2.8238E-03   -155.01  0.0000E+00      0.00
  140.00     24.00     -2.30  -999.99    -2.30      0.0000     -0.00 LINEAR  2.6078E-03   -159.01  0.0000E+00      0.00
  144.00     24.00     -3.10  -999.99    -3.10      0.0000     -0.00 LINEAR  2.3801E-03   -163.11  0.0000E+00      0.00
  148.00     24.00     -4.01  -999.99    -4.01      0.0000     -0.00 LINEAR  2.1418E-03   -167.29  0.0000E+00      0.00
  152.00     24.00     -5.08  -999.99    -5.08      0.0000     -0.00 LINEAR  1.8943E-03   -171.54  0.0000E+00      0.00
  156.00     24.00     -6.34  -999.99    -6.34      0.0000     -0.00 LINEAR  1.6386E-03   -175.83  0.0000E+00      0.00
  160.00     24.00     -7.86  -999.99    -7.86      0.0000     -0.00 LINEAR  1.3760E-03    179.86  0.0000E+00      0.00
  164.00     24.00     -9.74  -999.99    -9.74      0.0000     -0.00 LINEAR  1.1076E-03    175.54  0.0000E+00      0.00
  168.00     24.00    -12.20  -999.99   -12.20      0.0000     -0.00 LINEAR  8.3470E-04    171.25  0.0000E+00      0.00
  172.00     24.00    -15.69  -999.99   -15.69      0.0000     -0.00 LINEAR  5.5836E-04    166.99  0.0000E+00      0.00
  176.00     24.00    -21.69  -999.99   -21.69      0.0000     -0.00 LINEAR  2.7975E-04    162.79  0.0000E+00      0.00
  180.00     24.00   -999.99  -999.99  -999.99      0.0000      0.00         4.0927E-14    -21.32  0.0000E+00      0.00
    0.00     28.00   -999.99  -999.99  -999.99      0.0000      0.00         0.0000E+00      0.00  0.0000E+00      0.00
    4.00     28.00    -21.68  -999.99   -21.68      0.0000     -0.00 LINEAR  2.8029E-04   -155.28  0.0000E+00      0.00
    8.00     28.00    -15.67  -999.99   -15.67      0.0000     -0.00 LINEAR  5.5944E-04   -151.20  0.0000E+00      0.00
   12.00     28.00    -12.18  -999.99   -12.18      0.0000     -0.00 LINEAR  8.3629E-04   -147.27  0.0000E+00      0.00
   16.00     28.00     -9.72  -999.99    -9.72      0.0000     -0.00 LINEAR  1.1097E-03   -143.49  0.0000E+00      0.00
   20.00     28.00     -7.84  -999.99    -7.84      0.0000     -0.00 LINEAR  1.3785E-03   -139.89  0.0000E+00      0.00
   24.00     28.00     -6.32  -999.99    -6.32      0.0000     -0.00 LINEAR  1.6415E-03   -136.49  0.0000E+00      0.00
   28.00     28.00     -5.06  -999.99    -5.06      0.0000     -0.00 LINEAR  1.8975E-03   -133.30  0.0000E+00      0.00
   32.00     28.00     -4.00  -999.99    -4.00      0.0000     -0.00 LINEAR  2.1453E-03   -130.35  0.0000E+00      0.00
   36.00     28.00     -3.08  -999.99    -3.08      0.0000     -0.00 LINEAR  2.3838E-03   -127.63  0.0000E+00      0.00
   40.00     28.00     -2.29  -999.99    -2.29      0.0000     -0.00 LINEAR  2.6117E-03   -125.18  0.0000E+00      0.00
   44.00     28.00     -1.60  -999.99    -1.60      0.0000     -0.00 LINEAR  2.8277E-03   -122.99  0.0000E+00      0.00
   48.00     28.00     -1.00  -999.99    -1.00      0.0000     -0.00 LINEAR  3.0308E-03   -121.08  0.0000E+00      0.00
   52.00     28.00     -0.47  -999.99    -0.47      0.0000     -0.00 LINEAR  3.2197E-03   -119.47  0.0000E+00      0.00
   56.00     28.00     -0.01  -999.99    -0.01      0.0000     -0.00 LINEAR  3.3934E-03   -118.15  0.0000E+00      0.00
   60.00     28.00      0.38  -999.99     0.38      0.0000     -0.00 LINEAR  3.5507E-03   -117.13  0.0000E+00      0.00
   64.00     28.00      0.71  -999.99     0.71      0.0000     -0.00 LINEAR  3.6908E-03   -116.42  0.0000E+00      0.00
   68.00     28.00      1.00  -999.99     1.00      0.0000     -0.00 LINEAR  3.8126E-03   -116.03  0.0000E+00      0.00
   72.00     28.00      1.23  -999.99     1.23      0.0000     -0.00 LINEAR  3.9154E-03   -115.95  0.0000E+00      0.00
   76.00     28.00      1.41  -999.99     1.41      0.0000     -0.00 LINEAR  3.9984E-03   -116.18  0.0000E+00      0.00
   80.00     28.00      1.55  -999.99     1.55      0.0000     -0.00 LINEAR  4.0611E-03   -116.73  0.0000E+00      0.00
   84.00     28.00      1.63  -999.99     1.63      0.0000     -0.00 LINEAR  4.1031E-03   -117.59  0.0000E+00      0.00
   88.00     28.00      1.68  -999.99     1.68      0.0000     -0.00 LINEAR  4.1240E-03   -118.75  0.0000E+00      0.00
   92.00     28.00      1.68  -999.99     1.68      0.0000     -0.00 LINEAR  4.1237E-03   -120.22  0.0000E+00      0.00
   96.00     28.00      1.63  -999.99     1.63      0.0000     -0.00 LINEAR  4.1022E-03   -121.98  0.0000E+00      0.00
  100.00     28.00      1.54  -999.99     1.54      0.0000     -0.00 LINEAR  4.0597E-03   -124.02  0.0000E+00      0.00
  104.00     28.00      1.41  -999.99     1.41      0.0000     -0.00 LINEAR  3.9965E-03   -126.34  0.0000E+00      0.00
  108.00     28.00      1.22  -999.99     1.22      0.0000     -0.00 LINEAR  3.9130E-03   -128.92  0.0000E+00      0.00
  112.00     28.00      0.99  -999.99     0.99      0.0000     -0.00 LINEAR  3.8098E-03   -131.75  0.0000E+00      0.00
  116.00     28.00      0.71  -999.99     0.71      0.0000     -0.00 LINEAR  3.6877E-03   -134.81  0.0000E+00      0.00
  120.00     28.00      0.37  -999.99     0.37      0.0000     -0.00 LINEAR  3.5473E-03   -138.10  0.0000E+00      0.00
  124.00     28.00     -0.02  -999.99    -0.02      0.0000     -0.00 LINEAR  3.3897E-03   -141.59  0.0000E+00      0.00
  128.00     28.00     -0.48  -999.99    -0.48      0.0000     -0.00 LINEAR  3.2159E-03   -145.27  0.0000E+00      0.00
  132.00     28.00     -1.01  -999.99    -1.01      0.0000     -0.00 LINEAR  3.0269E-03   -149.13  0.0000E+00      0.00
  136.00     28.00     -1.61  -999.99    -1.61      0.0000     -0.00 LINEAR  2.8238E-03   -153.13  0.0000E+00      0.00
  140.00     28.00     -2.30  -999.99    -2.30      0.0000     -0.00 LINEAR  2.6078E-03   -157.27  0.0000E+00      0.00
  144.00     28.00     -3.10  -999.99    -3.10      0.0000     -0.00 LINEAR  2.3801E-03   -161.52  0.0000E+00      0.00
  148.00     28.00     -4.01  -999.99    -4.01      0.0000     -0.00 LINEAR  2.1418E-03   -165.86  0.0000E+00      0.00
  152.00     28.00     -5.08  -999.99    -5.08      0.0000     -0.00 LINEAR  1.8943E-03   -170.27  0.0000E+00      0.00
  156.00     28.00     -6.34  -999.99    -6.34      0.0000     -0.00 LINEAR  1.6386E-03   -174.73  0.0000E+00      0.00
  160.00     28.00     -7.86  -999.99    -7.86      0.0000     -0.00 LINEAR  1.3760E-03   -179.22  0.0000E+00      0.00
  164.00     28.00     -9.74  -999.99    -9.74      0.0000     -0.00 LINEAR  1.1076E-03    176.29  0.0000E+00      0.00
  168.00     28.00    -12.20  -999.99   -12.20      0.0000     -0.00 LINEAR  8.3470E-04    171.81  0.0000E+00      0.00
  172.00     28.00    -15.69  -999.99   -15.69      0.0000     -0.00 LINEAR  5.5836E-04    167.37  0.0000E+00      0.00
  176.00     28.00    -21.69  -999.99   -21.69      0.0000     -0.00 LINEAR  2.7975E-04    162.98  0.0000E+00      0.00
  180.00     28.00   -999.99  -999.99  -999.99      0.0000      0.00         4.0927E-14    -21.32  0.0000E+00      0.00
    0.00     32.00   -999.99  -999.99  -999.99      0.0000      0.00         0.0000E+00      0.00  0.0000E+00      0.00
    4.00     32.00    -21.68  -999.99   -21.68      0.0000     -0.00 LINEAR  2.8029E-04   -155.11  0.0000E+00      0.00
    8.00     32.00    -15.67  -999.99   -15.67      0.0000     -0.00 LINEAR  5.5944E-04   -150.87  0.0000E+00      0.00
   12.00     32.00    -12.18  -999.99   -12.18      0.0000     -0.00 LINEAR  8.3629E-04   -146.76  0.0000E+00      0.00
   16.00     32.00     -9.72  -999.99    -9.72      0.0000     -0.00 LINEAR  1.1097E-03   -142.82  0.0000E+00      0.00
   20.00     32.00     -7.84  -999.99    -7.84      0.0000     -0.00 LINEAR  1.3785E-03   -139.07  0.0000E+00      0.00
   24.00     32.00     -6.32  -999.99    -6.32      0.0000     -0.00 LINEAR  1.6415E-03   -135.51  0.0000E+00      0.00
   28.00     32.00     -5.06  -999.99    -5.06      0.0000     -0.00 LINEAR  1.8975E-03   -132.17  0.0000E+00      0.00
   32.00     32.00     -4.00  -999.99    -4.00      0.0000     -0.00 LINEAR  2.1453E-03   -129.07  0.0000E+00      0.00
   36.00     32.00     -3.08  -999.99    -3.08      0.0000     -0.00 LINEAR  2.3838E-03   -126.22  0.0000E+00      0.00
   40.00     32.00     -2.29  -999.99    -2.29      0.0000     -0.00 LINEAR  2.6117E-03   -123.63  0.0000E+00      0.00
   44.00     32.00     -1.60  -999.99    -1.60      0.0000     -0.00 LINEAR  2.8277E-03   -121.32  0.0000E+00      0.00
   48.00     32.00     -1.00  -999.99    -1.00      0.0000     -0.00 LINEAR  3.0308E-03   -119.29  0.0000E+00      0.00
   52.00     32.00     -0.47  -999.99    -0.47      0.0000     -0.00 LINEAR  3.2197E-03   -117.57  0.0000E+00      0.00
   56.00     32.00     -0.01  -999.99    -0.01      0.0000     -0.00 LINEAR  3.3934E-03   -116.15  0.0000E+00      0.00
   60.00     32.00      0.38  -999.99     0.38      0.0000     -0.00 LINEAR  3.5507E-03   -115.04  0.0000E+00      0.00
   64.00     32.00      0.71  -999.99     0.71      0.0000     -0.00 LINEAR  3.6908E-03   -114.26  0.0000E+00      0.00
   68.00     32.00      1.00  -999.99     1.00      0.0000     -0.00 LINEAR  3.8126E-03   -113.80  0.0000E+00      0.00
   72.00     32.00      1.23  -999.99     1.23      0.0000     -0.00 LINEAR  3.9154E-03   -113.66  0.0000E+00      0.00
   76.00     32.00      1.41  -999.99     1.41      0.0000     -0.00 LINEAR  3.9984E-03   -113.85  0.0000E+00      0.00
   80.00     32.00      1.55  -999.99     1.55      0.0000     -0.00 LINEAR  4.0611E-03   -114.36  0.0000E+00      0.00
   84.00     32.00      1.63  -999.99     1.63      0.0000     -0.00 LINEAR  4.1031E-03   -115.19  0.0000E+00      0.00
   88.00     32.00      1.68  -999.99     1.68      0.0000     -0.00 LINEAR  4.1240E-03   -116.35  0.0000E+00      0.00
   92.00     32.00      1.68  -999.99     1.68      0.0000     -0.00 LINEAR  4.1237E-03   -117.81  0.0000E+00      0.00
   96.00     32.00      1.63  -999.99     1.63      0.0000     -0.00 LINEAR  4.1022E-03   -119.58  0.0000E+00      0.00
  100.00     32.00      1.54  -999.99     1.54      0.0000     -0.00 LINEAR  4.0597E-03   -121.65  0.0000E+00      0.00
  104.00     32.00      1.41  -999.99     1.41      0.0000     -0.00 LINEAR  3.9965E-03   -124.00  0.0000E+00      0.00
  108.00     32.00      1.22  -999.99     1.22      0.0000     -0.00 LINEAR  3.9130E-03   -126.62  0.0000E+00      0.00
  112.00     32.00      0.99  -999.99     0.99      0.0000     -0.00 LINEAR  3.8098E-03   -129.51  0.0000E+00      0.00
  116.00     32.00      0.71  -999.99     0.71      0.0000     -0.00 LINEAR  3.6877E-03   -132.65  0.0000E+00      0.00
  120.00     32.00      0.37  -999.99     0.37      0.0000     -0.00 LINEAR  3.5473E-03   -136.01  0.0000E+00      0.00
  124.00     32.00     -0.02  -999.99    -0.02      0.0000     -0.00 LINEAR  3.3897E-03   -139.59  0.0000E+00      0.00
  128.00     32.00     -0.48  -999.99    -0.48      0.0000     -0.00 LINEAR  3.2159E-03   -143.38  0.0000E+00      0.00
  132.00     32.00     -1.01  -999.99    -1.01      0.0000     -0.00 LINEAR  3.0269E-03   -147.34  0.0000E+00      0.00
  136.00     32.00     -1.61  -999.99    -1.61      0.0000     -0.00 LINEAR  2.8238E-03   -151.46  0.0000E+00      0.00
  140.00     32.00     -2.30  -999.99    -2.30      0.0000     -0.00 LINEAR  2.6078E-03   -155.72  0.0000E+00      0.00
  144.00     32.00     -3.10  -999.99    -3.10      0.0000     -0.00 LINEAR  2.3801E-03   -160.10  0.0000E+00      0.00
  148.00     32.00     -4.01  -999.99    -4.01      0.0000     -0.00 LINEAR  2.1418E-03   -164.58  0.0000E+00      0.00
  152.00     32.00     -5.08  -999.99    -5.08      0.0000     -0.00 LINEAR  1.8943E-03   -169.14  0.0000E+00      0.00
  156.00     32.00     -6.34  -999.99    -6.34      0.0000     -0.00 LINEAR  1.6386E-03   -173.75  0.0000E+00      0.00
  160.00     32.00     -7.86  -999.99    -7.86      0.0000     -0.00 LINEAR  1.3760E-03   -178.39  0.0000E+00      0.00
  164.00     32.00     -9.74  -999.99    -9.74      0.0000     -0.00 LINEAR  1.1076E-03    176.95  0.0000E+00      0.00
  168.00     32.00    -12.20  -999.99   -12.20      0.0000     -0.00 LINEAR  8.3470E-04    172.31  0.0000E+00      0.00
  172.00     32.00    -15.69  -999.99   -15.69      0.0000     -0.00 LINEAR  5.5836E-04    167.70  0.0000E+00      0.00
  176.00     32.00    -21.69  -999.99   -21.69      0.0000     -0.00 LINEAR  2.7975E-04    163.15  0.0000E+00      0.00
  180.00     32.00   -999.99  -999.99  -999.99      0.0000      0.00         4.0927E-14    -21.32  0.0000E+00      0.00
    0.00     36.00   -999.99  -999.99  -999.99      0.0000      0.00         0.0000E+00      0.00  0.0000E+00      0.00
    4.00     36.00    -21.68  -999.99   -21.68      0.0000     -0.00 LINEAR  2.8029E-04   -154.97  0.0000E+00      0.00
    8.00     36.00    -15.67  -999.99   -15.67      0.0000     -0.00 LINEAR  5.5944E-04   -150.58  0.0000E+00      0.00
   12.00     36.00    -12.18  -999.99   -12.18      0.0000     -0.00 LINEAR  8.3629E-04   -146.33  0.0000E+00      0.00
   16.00     36.00     -9.72  -999.99    -9.72      0.0000     -0.00 LINEAR  1.1097E-03   -142.24  0.0000E+00      0.00
   20.00     36.00     -7.84  -999.99    -7.84      0.0000     -0.00 LINEAR  1.3785E-03   -138.35  0.0000E+00      0.00
   24.00     36.00     -6.32  -999.99    -6.32      0.0000     -0.00 LINEAR  1.6415E-03   -134.66  0.0000E+00      0.00
   28.00     36.00     -5.06  -999.99    -5.06      0.0000     -0.00 LINEAR  1.8975E-03   -131.19  0.0000E+00      0.00
   32.00     36.00     -4.00  -999.99    -4.00      0.0000     -0.00 LINEAR  2.1453E-03   -127.96  0.0000E+00      0.00
   36.00     36.00     -3.08  -999.99    -3.08      0.0000     -0.00 LINEAR  2.3838E-03   -124.98  0.0000E+00      0.00
   40.00     36.00     -2.29  -999.99    -2.29      0.0000     -0.00 LINEAR  2.6117E-03   -122.28  0.0000E+00      0.00
   44.00     36.00     -1.60  -999.99    -1.60      0.0000     -0.00 LINEAR  2.8277E-03   -119.86  0.0000E+00      0.00
   48.00     36.00     -1.00  -999.99    -1.00      0.0000     -0.00 LINEAR  3.0308E-03   -117.73  0.0000E+00      0.00
   52.00     36.00     -0.47  -999.99    -0.47      0.0000     -0.00 LINEAR  3.2197E-03   -115.91  0.0000E+00      0.00
   56.00     36.00     -0.01  -999.99    -0.01      0.0000     -0.00 LINEAR  3.3934E-03   -114.41  0.0000E+00      0.00
   60.00     36.00      0.38  -999.99     0.38      0.0000     -0.00 LINEAR  3.5507E-03   -113.22  0.0000E+00      0.00
   64.00     36.00      0.71  -999.99     0.71      0.0000     -0.00 LINEAR  3.6908E-03   -112.37  0.0000E+00      0.00
   68.00     36.00      1.00  -999.99     1.00      0.0000     -0.00 LINEAR  3.8126E-03   -111.85  0.0000E+00      0.00
   72.00     36.00      1.23  -999.99     1.23      0.0000     -0.00 LINEAR  3.9154E-03   -111.66  0.0000E+00      0.00
   76.00     36.00      1.41  -999.99     1.41      0.0000     -0.00 LINEAR  3.9984E-03   -111.81  0.0000E+00      0.00
   80.00     36.00      1.55  -999.99     1.55      0.0000     -0.00 LINEAR  4.0611E-03   -112.29  0.0000E+00      0.00
   84.00     36.00      1.63  -999.99     1.63      0.0000     -0.00 LINEAR  4.1031E-03   -113.10  0.0000E+00      0.00
   88.00     36.00      1.68  -999.99     1.68      0.0000     -0.00 LINEAR  4.1240E-03   -114.25  0.0000E+00      0.00
   92.00     36.00      1.68  -999.99     1.68      0.0000     -0.00 LINEAR  4.1237E-03   -115.71  0.0000E+00      0.00
   96.00     36.00      1.63  -999.99     1.63      0.0000     -0.00 LINEAR  4.1022E-03   -117.49  0.0000E+00      0.00
  100.00     36.00      1.54  -999.99     1.54      0.0000     -0.00 LINEAR  4.0597E-03   -119.58  0.0000E+00      0.00
  104.00     36.00      1.41  -999.99     1.41      0.0000     -0.00 LINEAR  3.9965E-03   -121.96  0.0000E+00      0.00
  108.00     36.00      1.22  -999.99     1.22      0.0000     -0.00 LINEAR  3.9130E-03   -124.62  0.0000E+00      0.00
  112.00     36.00      0.99  -999.99     0.99      0.0000     -0.00 LINEAR  3.8098E-03   -127.56  0.0000E+00      0.00
  116.00     36.00      0.71  -999.99     0.71      0.0000     -0.00 LINEAR  3.6877E-03   -130.76  0.0000E+00      0.00
  120.00     36.00      0.37  -999.99     0.37      0.0000     -0.00 LINEAR  3.5473E-03   -134.19  0.0000E+00      0.00
  124.00     36.00     -0.02  -999.99    -0.02      0.0000     -0.00 LINEAR  3.3897E-03   -137.85  0.0000E+00      0.00
  128.00     36.00     -0.48  -999.99    -0.48      0.0000     -0.00 LINEAR  3.2159E-03   -141.72  0.0000E+00      0.00
  132.00     36.00     -1.01  -999.99    -1.01      0.0000     -0.00 LINEAR  3.0269E-03   -145.77  0.0000E+00      0.00
  136.00     36.00     -1.61  -999.99    -1.61      0.0000     -0.00 LINEAR  2.8238E-03   -150.00  0.0000E+00      0.00
  140.00     36.00     -2.30  -999.99    -2.30      0.0000     -0.00 LINEAR  2.6078E-03   -154.37  0.0000E+00      0.00
  144.00     36.00     -3.10  -999.99    -3.10      0.0000     -0.00 LINEAR  2.3801E-03   -158.86  0.0000E+00      0.00
  148.00     36.00     -4.01  -999.99    -4.01      0.0000     -0.00 LINEAR  2.1418E-03   -163.47  0.0000E+00      0.00
  152.00     36.00     -5.08  -999.99    -5.08      0.0000     -0.00 LINEAR  1.8943E-03   -168.15  0.0000E+00      0.00
  156.00     36.00     -6.34  -999.99    -6.34      0.0000     -0.00 LINEAR  1.6386E-03   -172.89  0.0000E+00      0.00
  160.00     36.00     -7.86  -999.99    -7.86      0.0000     -0.00 LINEAR  1.3760E-03   -177.67  0.0000E+00      0.00
  164.00     36.00     -9.74  -999.99    -9.74      0.0000     -0.00 LINEAR  1.1076E-03    177.53  0.0000E+00      0.00
  168.00     36.00    -12.20  -999.99   -12.20      0.0000     -0.00 LINEAR  8.3470E-04    172.75  0.0000E+00      0.00
  172.00     36.00    -15.69  -999.99   -15.69      0.0000     -0.00 LINEAR  5.5836E-04    167.99  0.0000E+00      0.00
  176.00     36.00    -21.69  -999.99   -21.69      0.0000     -0.00 LINEAR  2.7975E-04    163.30  0.0000E+00      0.00
  180.00     36.00   -999.99  -999.99  -999.99      0.0000      0.00         4.0927E-14    -21.32  0.0000E+00      0.00
    0.00     40.00   -999.99  -999.99  -999.99      0.0000      0.00         0.0000E+00      0.00  0.0000E+00      0.00
    4.00     40.00    -21.68  -999.99   -21.68      0.0000     -0.00 LINEAR  2.8029E-04   -154.84  0.0000E+00      0.00
    8.00     40.00    -15.67  -999.99   -15.67      0.0000     -0.00 LINEAR  5.5944E-04   -150.33  0.0000E+00      0.00
   12.00     40.00    -12.18  -999.99   -12.18      0.0000     -0.00 LINEAR  8.3629E-04   -145.96  0.0000E+00      0.00
   16.00     40.00     -9.72  -999.99    -9.72      0.0000     -0.00 LINEAR  1.1097E-03   -141.75  0.0000E+00      0.00
   20.00     40.00     -7.84  -999.99    -7.84      0.0000     -0.00 LINEAR  1.3785E-03   -137.74  0.0000E+00      0.00
   24.00     40.00     -6.32  -999.99    -6.32      0.0000     -0.00 LINEAR  1.6415E-03   -133.93  0.0000E+00      0.00
   28.00     40.00     -5.06  -999.99    -5.06      0.0000     -0.00 LINEAR  1.8975E-03   -130.35  0.0000E+00      0.00
   32.00     40.00     -4.00  -999.99    -4.00      0.0000     -0.00 LINEAR  2.1453E-03   -127.01  0.0000E+00      0.00
   36.00     40.00     -3.08  -999.99    -3.08      0.0000     -0.00 LINEAR  2.3838E-03   -123.93  0.0000E+00      0.00
   40.00     40.00     -2.29  -999.99    -2.29      0.0000     -0.00 LINEAR  2.6117E-03   -121.13  0.0000E+00      0.00
   44.00     40.00     -1.60  -999.99    -1.60      0.0000     -0.00 LINEAR  2.8277E-03   -118.62  0.0000E+00      0.00
   48.00     40.00     -1.00  -999.99    -1.00      0.0000     -0.00 LINEAR  3.0308E-03   -116.41  0.0000E+00      0.00
   52.00     40.00     -0.47  -999.99    -0.47      0.0000     -0.00 LINEAR  3.2197E-03   -114.51  0.0000E+00      0.00
   56.00     40.00     -0.01  -999.99    -0.01      0.0000     -0.00 LINEAR  3.3934E-03   -112.93  0.0000E+00      0.00
   60.00     40.00      0.38  -999.99     0.38      0.0000     -0.00 LINEAR  3.5507E-03   -111.68  0.0000E+00      0.00
   64.00     40.00      0.71  -999.99     0.71      0.0000     -0.00 LINEAR  3.6908E-03   -110.77  0.0000E+00      0.00
   68.00     40.00      1.00  -999.99     1.00      0.0000     -0.00 LINEAR  3.8126E-03   -110.19  0.0000E+00      0.00
   72.00     40.00      1.23  -999.99     1.23      0.0000     -0.00 LINEAR  3.9154E-03   -109.96  0.0000E+00      0.00
   76.00     40.00      1.41  -999.99     1.41      0.0000     -0.00 LINEAR  3.9984E-03   -110.08  0.0000E+00      0.00
   80.00     40.00      1.55  -999.99     1.55      0.0000     -0.00 LINEAR  4.0611E-03   -110.53  0.0000E+00      0.00
   84.00     40.00      1.63  -999.99     1.63      0.0000     -0.00 LINEAR  4.1031E-03   -111.33  0.0000E+00      0.00
   88.00     40.00      1.68  -999.99     1.68      0.0000     -0.00 LINEAR  4.1240E-03   -112.46  0.0000E+00      0.00
   92.00     40.00      1.68  -999.99     1.68      0.0000     -0.00 LINEAR  4.1237E-03   -113.93  0.0000E+00      0.00
   96.00     40.00      1.63  -999.99     1.63      0.0000     -0.00 LINEAR  4.1022E-03   -115.72  0.0000E+00      0.00
  100.00     40.00      1.54  -999.99     1.54      0.0000     -0.00 LINEAR  4.0597E-03   -117.82  0.0000E+00      0.00
  104.00     40.00      1.41  -999.99     1.41      0.0000     -0.00 LINEAR  3.9965E-03   -120.23  0.0000E+00      0.00
  108.00     40.00      1.22  -999.99     1.22      0.0000     -0.00 LINEAR  3.9130E-03   -122.93  0.0000E+00      0.00
  112.00     40.00      0.99  -999.99     0.99      0.0000     -0.00 LINEAR  3.8098E-03   -125.91  0.0000E+00      0.00
  116.00     40.00      0.71  -999.99     0.71      0.0000     -0.00 LINEAR  3.6877E-03   -129.15  0.0000E+00      0.00
  120.00     40.00      0.37  -999.99     0.37      0.0000     -0.00 LINEAR  3.5473E-03   -132.65  0.0000E+00      0.00
  124.00     40.00     -0.02  -999.99    -0.02      0.0000     -0.00 LINEAR  3.3897E-03   -136.37  0.0000E+00      0.00
  128.00     40.00     -0.48  -999.99    -0.48      0.0000     -0.00 LINEAR  3.2159E-03   -140.31  0.0000E+00      0.00
  132.00     40.00     -1.01  -999.99    -1.01      0.0000     -0.00 LINEAR  3.0269E-03   -144.45  0.0000E+00      0.00
  136.00     40.00     -1.61  -999.99    -1.61      0.0000     -0.00 LINEAR  2.8238E-03   -148.76  0.0000E+00      0.00
  140.00     40.00     -2.30  -999.99    -2.30      0.0000     -0.00 LINEAR  2.6078E-03   -153.22  0.0000E+00      0.00
  144.00     40.00     -3.10  -999.99    -3.10      0.0000     -0.00 LINEAR  2.3801E-03   -157.82  0.0000E+00      0.00
  148.00     40.00     -4.01  -999.99    -4.01      0.0000     -0.00 LINEAR  2.1418E-03   -162.52  0.0000E+00      0.00
  152.00     40.00     -5.08  -999.99    -5.08      0.0000     -0.00 LINEAR  1.8943E-03   -167.31  0.0000E+00      0.00
  156.00     40.00     -6.34  -999.99    -6.34      0.0000     -0.00 LINEAR  1.6386E-03   -172.17  0.0000E+00      0.00
  160.00     40.00     -7.86  -999.99    -7.86      0.0000     -0.00 LINEAR  1.3760E-03   -177.07  0.0000E+00      0.00
  164.00     40.00     -9.74  -999.99    -9.74      0.0000     -0.00 LINEAR  1.1076E-03    178.02  0.0000E+00      0.00
  168.00     40.00    -12.20  -999.99   -12.20      0.0000     -0.00 LINEAR  8.3470E-04    173.12  0.0000E+00      0.00
  172.00     40.00    -15.69  -999.99   -15.69      0.0000     -0.00 LINEAR  5.5836E-04    168.24  0.0000E+00      0.00
  176.00     40.00    -21.69  -999.99   -21.69      0.0000     -0.00 LINEAR  2.7975E-04    163.42  0.0000E+00      0.00
  180.00     40.00   -999.99  -999.99  -999.99      0.0000      0.00         4.0927E-14    -21.32  0.0000E+00      0.00
    0.00     44.00   -999.99  -999.99  -999.99      0.0000      0.00         0.0000E+00      0.00  0.0000E+00      0.00
    4.00     44.00    -21.68  -999.99   -21.68      0.0000     -0.00 LINEAR  2.8029E-04   -154.74  0.0000E+00      0.00
    8.00     44.00    -15.67  -999.99   -15.67      0.0000     -0.00 LINEAR  5.5944E-04   -150.12  0.0000E+00      0.00
   12.00     44.00    -12.18  -999.99   -12.18      0.0000     -0.00 LINEAR  8.3629E-04   -145.65  0.0000E+00      0.00
   16.00     44.00     -9.72  -999.99    -9.72      0.0000     -0.00 LINEAR  1.1097E-03   -141.35  0.0000E+00      0.00
   20.00     44.00     -7.84  -999.99    -7.84      0.0000     -0.00 LINEAR  1.3785E-03   -137.24  0.0000E+00      0.00
   24.00     44.00     -6.32  -999.99    -6.32      0.0000     -0.00 LINEAR  1.6415E-03   -133.34  0.0000E+00      0.00
   28.00     44.00     -5.06  -999.99    -5.06      0.0000     -0.00 LINEAR  1.8975E-03   -129.67  0.0000E+00      0.00
   32.00     44.00     -4.00  -999.99    -4.00      0.0000     -0.00 LINEAR  2.1453E-03   -126.24  0.0000E+00      0.00
   36.00     44.00     -3.08  -999.99    -3.08      0.0000     -0.00 LINEAR  2.3838E-03   -123.08  0.0000E+00      0.00
   40.00     44.00     -2.29  -999.99    -2.29      0.0000     -0.00 LINEAR  2.6117E-03   -120.20  0.0000E+00      0.00
   44.00     44.00     -1.60  -999.99    -1.60      0.0000     -0.00 LINEAR  2.8277E-03   -117.61  0.0000E+00      0.00
   48.00     44.00     -1.00  -999.99    -1.00      0.0000     -0.00 LINEAR  3.0308E-03   -115.33  0.0000E+00      0.00
   52.00     44.00     -0.47  -999.99    -0.47      0.0000     -0.00 LINEAR  3.2197E-03   -113.36  0.0000E+00      0.00
   56.00     44.00     -0.01  -999.99    -0.01      0.0000     -0.00 LINEAR  3.3934E-03   -111.72  0.0000E+00      0.00
   60.00     44.00      0.38  -999.99     0.38      0.0000     -0.00 LINEAR  3.5507E-03   -110.42  0.0000E+00      0.00
   64.00     44.00      0.71  -999.99     0.71      0.0000     -0.00 LINEAR  3.6908E-03   -109.46  0.0000E+00      0.00
   68.00     44.00      1.00  -999.99     1.00      0.0000     -0.00 LINEAR  3.8126E-03   -108.85  0.0000E+00      0.00
   72.00     44.00      1.23  -999.99     1.23      0.0000     -0.00 LINEAR  3.9154E-03   -108.58  0.0000E+00      0.00
   76.00     44.00      1.41  -999.99     1.41      0.0000     -0.00 LINEAR  3.9984E-03   -108.67  0.0000E+00      0.00
   80.00     44.00      1.55  -999.99     1.55      0.0000     -0.00 LINEAR  4.0611E-03   -109.10  0.0000E+00      0.00
   84.00     44.00      1.63  -999.99     1.63      0.0000     -0.00 LINEAR  4.1031E-03   -109.88  0.0000E+00      0.00
   88.00     44.00      1.68  -999.99     1.68      0.0000     -0.00 LINEAR  4.1240E-03   -111.01  0.0000E+00      0.00
   92.00     44.00      1.68  -999.99     1.68      0.0000     -0.00 LINEAR  4.1237E-03   -112.48  0.0000E+00      0.00
   96.00     44.00      1.63  -999.99     1.63      0.0000     -0.00 LINEAR  4.1022E-03   -114.27  0.0000E+00      0.00
  100.00     44.00      1.54  -999.99     1.54      0.0000     -0.00 LINEAR  4.0597E-03   -116.39  0.0000E+00      0.00
  104.00     44.00      1.41  -999.99     1.41      0.0000     -0.00 LINEAR  3.9965E-03   -118.82  0.0000E+00      0.00
  108.00     44.00      1.22  -999.99     1.22      0.0000     -0.00 LINEAR  3.9130E-03   -121.55  0.0000E+00      0.00
  112.00     44.00      0.99  -999.99     0.99      0.0000     -0.00 LINEAR  3.8098E-03   -124.56  0.0000E+00      0.00
  116.00     44.00      0.71  -999.99     0.71      0.0000     -0.00 LINEAR  3.6877E-03   -127.85  0.0000E+00      0.00
  120.00     44.00      0.37  -999.99     0.37      0.0000     -0.00 LINEAR  3.5473E-03   -131.39  0.0000E+00      0.00
  124.00     44.00     -0.02  -999.99    -0.02      0.0000     -0.00 LINEAR  3.3897E-03   -135.17  0.0000E+00      0.00
  128.00     44.00     -0.48  -999.99    -0.48      0.0000     -0.00 LINEAR  3.2159E-03   -139.17  0.0000E+00      0.00
  132.00     44.00     -1.01  -999.99    -1.01      0.0000     -0.00 LINEAR  3.0269E-03   -143.37  0.0000E+00      0.00
  136.00     44.00     -1.61  -999.99    -1.61      0.0000     -0.00 LINEAR  2.8238E-03   -147.75  0.0000E+00      0.00
  140.00     44.00     -2.30  -999.99    -2.30      0.0000     -0.00 LINEAR  2.6078E-03   -152.29  0.0000E+00      0.00
  144.00     44.00     -3.10  -999.99    -3.10      0.0000     -0.00 LINEAR  2.3801E-03   -156.96  0.0000E+00      0.00
  148.00     44.00     -4.01  -999.99    -4.01      0.0000     -0.00 LINEAR  2.1418E-03   -161.75  0.0000E+00      0.00
  152.00     44.00     -5.08  -999.99    -5.08      0.0000     -0.00 LINEAR  1.8943E-03   -166.63  0.0000E+00      0.00
  156.00     44.00     -6.34  -999.99    -6.34      0.0000     -0.00 LINEAR  1.6386E-03   -171.58  0.0000E+00      0.00
  160.00     44.00     -7.86  -999.99    -7.86      0.0000     -0.00 LINEAR  1.3760E-03   -176.57  0.0000E+00      0.00
  164.00     44.00     -9.74  -999.99    -9.74      0.0000     -0.00 LINEAR  1.1076E-03    178.42  0.0000E+00      0.00
  168.00     44.00    -12.20  -999.99   -12.20      0.0000     -0.00 LINEAR  8.3470E-04    173.42  0.0000E+00      0.00
  172.00     44.00    -15.69  -999.99   -15.69      0.0000     -0.00 LINEAR  5.5836E-04    168.44  0.0000E+00      0.00
  176.00     44.00    -21.69  -999.99   -21.69      0.0000     -0.00 LINEAR  2.7975E-04    163.52  0.0000E+00      0.00
  180.00     44.00   -999.99  -999.99  -999.99      0.0000      0.00         4.0927E-14    -21.32  0.0000E+00      0.00
    0.00     48.00   -999.99  -999.99  -999.99      0.0000      0.00         0.0000E+00      0.00  0.0000E+00      0.00
    4.00     48.00    -21.68  -999.99   -21.68      0.0000     -0.00 LINEAR  2.8029E-04   -154.66  0.0000E+00      0.00
    8.00     48.00    -15.67  -999.99   -15.67      0.0000     -0.00 LINEAR  5.5944E-04   -149.97  0.0000E+00      0.00
   12.00     48.00    -12.18  -999.99   -12.18      0.0000     -0.00 LINEAR  8.3629E-04   -145.42  0.0000E+00      0.00
   16.00     48.00     -9.72  -999.99    -9.72      0.0000     -0.00 LINEAR  1.1097E-03   -141.04  0.0000E+00      0.00
   20.00     48.00     -7.84  -999.99    -7.84      0.0000     -0.00 LINEAR  1.3785E-03   -136.86  0.0000E+00      0.00
   24.00     48.00     -6.32  -999.99    -6.32      0.0000     -0.00 LINEAR  1.6415E-03   -132.88  0.0000E+00      0.00
   28.00     48.00     -5.06  -999.99    -5.06      0.0000     -0.00 LINEAR  1.8975E-03   -129.14  0.0000E+00      0.00
   32.00     48.00     -4.00  -999.99    -4.00      0.0000     -0.00 LINEAR  2.1453E-03   -125.65  0.0000E+00      0.00
   36.00     48.00     -3.08  -999.99    -3.08      0.0000     -0.00 LINEAR  2.3838E-03   -122.42  0.0000E+00      0.00
   40.00     48.00     -2.29  -999.99    -2.29      0.0000     -0.00 LINEAR  2.6117E-03   -119.48  0.0000E+00      0.00
   44.00     48.00     -1.60  -999.99    -1.60      0.0000     -0.00 LINEAR  2.8277E-03   -116.83  0.0000E+00      0.00
   48.00     48.00     -1.00  -999.99    -1.00      0.0000     -0.00 LINEAR  3.0308E-03   -114.49  0.0000E+00      0.00
   52.00     48.00     -0.47  -999.99    -0.47      0.0000     -0.00 LINEAR  3.2197E-03   -112.48  0.0000E+00      0.00
   56.00     48.00     -0.01  -999.99    -0.01      0.0000     -0.00 LINEAR  3.3934E-03   -110.79  0.0000E+00      0.00
   60.00     48.00      0.38  -999.99     0.38      0.0000     -0.00 LINEAR  3.5507E-03   -109.45  0.0000E+00      0.00
   64.00     48.00      0.71  -999.99     0.71      0.0000     -0.00 LINEAR  3.6908E-03   -108.45  0.0000E+00      0.00
   68.00     48.00      1.00  -999.99     1.00      0.0000     -0.00 LINEAR  3.8126E-03   -107.81  0.0000E+00      0.00
   72.00     48.00      1.23  -999.99     1.23      0.0000     -0.00 LINEAR  3.9154E-03   -107.52  0.0000E+00      0.00
   76.00     48.00      1.41  -999.99     1.41      0.0000     -0.00 LINEAR  3.9984E-03   -107.58  0.0000E+00      0.00
   80.00     48.00      1.55  -999.99     1.55      0.0000     -0.00 LINEAR  4.0611E-03   -108.00  0.0000E+00      0.00
   84.00     48.00      1.63  -999.99     1.63      0.0000     -0.00 LINEAR  4.1031E-03   -108.77  0.0000E+00      0.00
   88.00     48.00      1.68  -999.99     1.68      0.0000     -0.00 LINEAR  4.1240E-03   -109.89  0.0000E+00      0.00
   92.00     48.00      1.68  -999.99     1.68      0.0000     -0.00 LINEAR  4.1237E-03   -111.36  0.0000E+00      0.00
   96.00     48.00      1.63  -999.99     1.63      0.0000     -0.00 LINEAR  4.1022E-03   -113.16  0.0000E+00      0.00
  100.00     48.00      1.54  -999.99     1.54      0.0000     -0.00 LINEAR  4.0597E-03   -115.29  0.0000E+00      0.00
  104.00     48.00      1.41  -999.99     1.41      0.0000     -0.00 LINEAR  3.9965E-03   -117.73  0.0000E+00      0.00
  108.00     48.00      1.22  -999.99     1.22      0.0000     -0.00 LINEAR  3.9130E-03   -120.48  0.0000E+00      0.00
  112.00     48.00      0.99  -999.99     0.99      0.0000     -0.00 LINEAR  3.8098E-03   -123.52  0.0000E+00      0.00
  116.00     48.00      0.71  -999.99     0.71      0.0000     -0.00 LINEAR  3.6877E-03   -126.84  0.0000E+00      0.00
  120.00     48.00      0.37  -999.99     0.37      0.0000     -0.00 LINEAR  3.5473E-03   -130.42  0.0000E+00      0.00
  124.00     48.00     -0.02  -999.99    -0.02      0.0000     -0.00 LINEAR  3.3897E-03   -134.24  0.0000E+00      0.00
  128.00     48.00     -0.48  -999.99    -0.48      0.0000     -0.00 LINEAR  3.2159E-03   -138.29  0.0000E+00      0.00
  132.00     48.00     -1.01  -999.99    -1.01      0.0000     -0.00 LINEAR  3.0269E-03   -142.54  0.0000E+00      0.00
  136.00     48.00     -1.61  -999.99    -1.61      0.0000     -0.00 LINEAR  2.8238E-03   -146.97  0.0000E+00      0.00
  140.00     48.00     -2.30  -999.99    -2.30      0.0000     -0.00 LINEAR  2.6078E-03   -151.57  0.0000E+00      0.00
  144.00     48.00     -3.10  -999.99    -3.10      0.0000     -0.00 LINEAR  2.3801E-03   -156.30  0.0000E+00      0.00
  148.00     48.00     -4.01  -999.99    -4.01      0.0000     -0.00 LINEAR  2.1418E-03   -161.16  0.0000E+00      0.00
  152.00     48.00     -5.08  -999.99    -5.08      0.0000     -0.00 LINEAR  1.8943E-03   -166.10  0.0000E+00      0.00
  156.00     48.00     -6.34  -999.99    -6.34      0.0000     -0.00 LINEAR  1.6386E-03   -171.12  0.0000E+00      0.00
  160.00     48.00     -7.86  -999.99    -7.86      0.0000     -0.00 LINEAR  1.3760E-03   -176.18  0.0000E+00      0.00
  164.00     48.00     -9.74  -999.99    -9.74      0.0000     -0.00 LINEAR  1.1076E-03    178.73  0.0000E+00      0.00
  168.00     48.00    -12.20  -999.99   -12.20      0.0000     -0.00 LINEAR  8.3470E-04    173.65  0.0000E+00      0.00
  172.00     48.00    -15.69  -999.99   -15.69      0.0000     -0.00 LINEAR  5.5836E-04    168.60  0.0000E+00      0.00
  176.00     48.00    -21.69  -999.99   -21.69      0.0000     -0.00 LINEAR  2.7975E-04    163.60  0.0000E+00      0.00
  180.00     48.00   -999.99  -999.99  -999.99      0.0000      0.00         4.0927E-14    -21.32  0.0000E+00      0.00
    0.00     52.00   -999.99  -999.99  -999.99      0.0000      0.00         0.0000E+00      0.00  0.0000E+00      0.00
    4.00     52.00    -21.68  -999.99   -21.68      0.0000     -0.00 LINEAR  2.8029E-04   -154.61  0.0000E+00      0.00
    8.00     52.00    -15.67  -999.99   -15.67      0.0000     -0.00 LINEAR  5.5944E-04   -149.86  0.0000E+00      0.00
   12.00     52.00    -12.18  -999.99   -12.18      0.0000     -0.00 LINEAR  8.3629E-04   -145.26  0.0000E+00      0.00
   16.00     52.00     -9.72  -999.99    -9.72      0.0000     -0.00 LINEAR  1.1097E-03   -140.83  0.0000E+00      0.00
   20.00     52.00     -7.84  -999.99    -7.84      0.0000     -0.00 LINEAR  1.3785E-03   -136.59  0.0000E+00      0.00
   24.00     52.00     -6.32  -999.99    -6.32      0.0000     -0.00 LINEAR  1.6415E-03   -132.57  0.0000E+00      0.00
   28.00     52.00     -5.06  -999.99    -5.06      0.0000     -0.00 LINEAR  1.8975E-03   -128.77  0.0000E+00      0.00
   32.00     52.00     -4.00  -999.99    -4.00      0.0000     -0.00 LINEAR  2.1453E-03   -125.23  0.0000E+00      0.00
   36.00     52.00     -3.08  -999.99    -3.08      0.0000     -0.00 LINEAR  2.3838E-03   -121.96  0.0000E+00      0.00
   40.00     52.00     -2.29  -999.99    -2.29      0.0000     -0.00 LINEAR  2.6117E-03   -118.97  0.0000E+00      0.00
   44.00     52.00     -1.60  -999.99    -1.60      0.0000     -0.00 LINEAR  2.8277E-03   -116.29  0.0000E+00      0.00
   48.00     52.00     -1.00  -999.99    -1.00      0.0000     -0.00 LINEAR  3.0308E-03   -113.91  0.0000E+00      0.00
   52.00     52.00     -0.47  -999.99    -0.47      0.0000     -0.00 LINEAR  3.2197E-03   -111.86  0.0000E+00      0.00
   56.00     52.00     -0.01  -999.99    -0.01      0.0000     -0.00 LINEAR  3.3934E-03   -110.15  0.0000E+00      0.00
   60.00     52.00      0.38  -999.99     0.38      0.0000     -0.00 LINEAR  3.5507E-03   -108.78  0.0000E+00      0.00
   64.00     52.00      0.71  -999.99     0.71      0.0000     -0.00 LINEAR  3.6908E-03   -107.75  0.0000E+00      0.00
   68.00     52.00      1.00  -999.99     1.00      0.0000     -0.00 LINEAR  3.8126E-03   -107.08  0.0000E+00      0.00
   72.00     52.00      1.23  -999.99     1.23      0.0000     -0.00 LINEAR  3.9154E-03   -106.77  0.0000E+00      0.00
[...]
   76.00    344.00      1.41  -999.99     1.41      0.0000     -0.00 LINEAR  3.9984E-03   -157.51  0.0000E+00      0.00
   80.00    344.00      1.55  -999.99     1.55      0.0000     -0.00 LINEAR  4.0611E-03   -158.67  0.0000E+00      0.00
   84.00    344.00      1.63  -999.99     1.63      0.0000     -0.00 LINEAR  4.1031E-03   -159.94  0.0000E+00      0.00
   88.00    344.00      1.68  -999.99     1.68      0.0000     -0.00 LINEAR  4.1240E-03   -161.32  0.0000E+00      0.00
   92.00    344.00      1.68  -999.99     1.68      0.0000     -0.00 LINEAR  4.1237E-03   -162.78  0.0000E+00      0.00
   96.00    344.00      1.63  -999.99     1.63      0.0000     -0.00 LINEAR  4.1022E-03   -164.33  0.0000E+00      0.00
  100.00    344.00      1.54  -999.99     1.54      0.0000     -0.00 LINEAR  4.0597E-03   -165.96  0.0000E+00      0.00
  104.00    344.00      1.41  -999.99     1.41      0.0000     -0.00 LINEAR  3.9965E-03   -167.66  0.0000E+00      0.00
  108.00    344.00      1.22  -999.99     1.22      0.0000     -0.00 LINEAR  3.9130E-03   -169.42  0.0000E+00      0.00
  112.00    344.00      0.99  -999.99     0.99      0.0000     -0.00 LINEAR  3.8098E-03   -171.23  0.0000E+00      0.00
  116.00    344.00      0.71  -999.99     0.71      0.0000     -0.00 LINEAR  3.6877E-03   -173.09  0.0000E+00      0.00
  120.00    344.00      0.37  -999.99     0.37      0.0000     -0.00 LINEAR  3.5473E-03   -174.98  0.0000E+00      0.00
  124.00    344.00     -0.02  -999.99    -0.02      0.0000     -0.00 LINEAR  3.3897E-03   -176.90  0.0000E+00      0.00
  128.00    344.00     -0.48  -999.99    -0.48      0.0000     -0.00 LINEAR  3.2159E-03   -178.83  0.0000E+00      0.00
  132.00    344.00     -1.01  -999.99    -1.01      0.0000     -0.00 LINEAR  3.0269E-03    179.23  0.0000E+00      0.00
  136.00    344.00     -1.61  -999.99    -1.61      0.0000     -0.00 LINEAR  2.8238E-03    177.29  0.0000E+00      0.00
  140.00    344.00     -2.30  -999.99    -2.30      0.0000     -0.00 LINEAR  2.6078E-03    175.36  0.0000E+00      0.00
  144.00    344.00     -3.10  -999.99    -3.10      0.0000     -0.00 LINEAR  2.3801E-03    173.45  0.0000E+00      0.00
  148.00    344.00     -4.01  -999.99    -4.01      0.0000     -0.00 LINEAR  2.1418E-03    171.58  0.0000E+00      0.00
  152.00    344.00     -5.08  -999.99    -5.08      0.0000     -0.00 LINEAR  1.8943E-03    169.74  0.0000E+00      0.00
  156.00    344.00     -6.34  -999.99    -6.34      0.0000     -0.00 LINEAR  1.6386E-03    167.95  0.0000E+00      0.00
  160.00    344.00     -7.86  -999.99    -7.86      0.0000     -0.00 LINEAR  1.3760E-03    166.22  0.0000E+00      0.00
  164.00    344.00     -9.74  -999.99    -9.74      0.0000     -0.00 LINEAR  1.1076E-03    164.55  0.0000E+00      0.00
  168.00    344.00    -12.20  -999.99   -12.20      0.0000     -0.00 LINEAR  8.3470E-04    162.95  0.0000E+00      0.00
  172.00    344.00    -15.69  -999.99   -15.69      0.0000     -0.00 LINEAR  5.5836E-04    161.44  0.0000E+00      0.00
  176.00    344.00    -21.69  -999.99   -21.69      0.0000     -0.00 LINEAR  2.7975E-04    160.01  0.0000E+00      0.00
  180.00    344.00   -999.99  -999.99  -999.99      0.0000      0.00         4.0927E-14    -21.32  0.0000E+00      0.00
    0.00    348.00   -999.99  -999.99  -999.99      0.0000      0.00         0.0000E+00      0.00  0.0000E+00      0.00
    4.00    348.00    -21.68  -999.99   -21.68      0.0000     -0.00 LINEAR  2.8029E-04   -157.92  0.0000E+00      0.00
    8.00    348.00    -15.67  -999.99   -15.67      0.0000     -0.00 LINEAR  5.5944E-04   -156.47  0.0000E+00      0.00
   12.00    348.00    -12.18  -999.99   -12.18      0.0000     -0.00 LINEAR  8.3629E-04   -155.13  0.0000E+00      0.00
   16.00    348.00     -9.72  -999.99    -9.72      0.0000     -0.00 LINEAR  1.1097E-03   -153.92  0.0000E+00      0.00
   20.00    348.00     -7.84  -999.99    -7.84      0.0000     -0.00 LINEAR  1.3785E-03   -152.83  0.0000E+00      0.00
   24.00    348.00     -6.32  -999.99    -6.32      0.0000     -0.00 LINEAR  1.6415E-03   -151.88  0.0000E+00      0.00
   28.00    348.00     -5.06  -999.99    -5.06      0.0000     -0.00 LINEAR  1.8975E-03   -151.07  0.0000E+00      0.00
   32.00    348.00     -4.00  -999.99    -4.00      0.0000     -0.00 LINEAR  2.1453E-03   -150.40  0.0000E+00      0.00
   36.00    348.00     -3.08  -999.99    -3.08      0.0000     -0.00 LINEAR  2.3838E-03   -149.87  0.0000E+00      0.00
   40.00    348.00     -2.29  -999.99    -2.29      0.0000     -0.00 LINEAR  2.6117E-03   -149.50  0.0000E+00      0.00
   44.00    348.00     -1.60  -999.99    -1.60      0.0000     -0.00 LINEAR  2.8277E-03   -149.27  0.0000E+00      0.00
   48.00    348.00     -1.00  -999.99    -1.00      0.0000     -0.00 LINEAR  3.0308E-03   -149.20  0.0000E+00      0.00
   52.00    348.00     -0.47  -999.99    -0.47      0.0000     -0.00 LINEAR  3.2197E-03   -149.28  0.0000E+00      0.00
   56.00    348.00     -0.01  -999.99    -0.01      0.0000     -0.00 LINEAR  3.3934E-03   -149.52  0.0000E+00      0.00
   60.00    348.00      0.38  -999.99     0.38      0.0000     -0.00 LINEAR  3.5507E-03   -149.90  0.0000E+00      0.00
   64.00    348.00      0.71  -999.99     0.71      0.0000     -0.00 LINEAR  3.6908E-03   -150.43  0.0000E+00      0.00
   68.00    348.00      1.00  -999.99     1.00      0.0000     -0.00 LINEAR  3.8126E-03   -151.11  0.0000E+00      0.00
   72.00    348.00      1.23  -999.99     1.23      0.0000     -0.00 LINEAR  3.9154E-03   -151.94  0.0000E+00      0.00
   76.00    348.00      1.41  -999.99     1.41      0.0000     -0.00 LINEAR  3.9984E-03   -152.90  0.0000E+00      0.00
   80.00    348.00      1.55  -999.99     1.55      0.0000     -0.00 LINEAR  4.0611E-03   -153.99  0.0000E+00      0.00
   84.00    348.00      1.63  -999.99     1.63      0.0000     -0.00 LINEAR  4.1031E-03   -155.22  0.0000E+00      0.00
   88.00    348.00      1.68  -999.99     1.68      0.0000     -0.00 LINEAR  4.1240E-03   -156.57  0.0000E+00      0.00
   92.00    348.00      1.68  -999.99     1.68      0.0000     -0.00 LINEAR  4.1237E-03   -158.03  0.0000E+00      0.00
   96.00    348.00      1.63  -999.99     1.63      0.0000     -0.00 LINEAR  4.1022E-03   -159.61  0.0000E+00      0.00
  100.00    348.00      1.54  -999.99     1.54      0.0000     -0.00 LINEAR  4.0597E-03   -161.28  0.0000E+00      0.00
  104.00    348.00      1.41  -999.99     1.41      0.0000     -0.00 LINEAR  3.9965E-03   -163.05  0.0000E+00      0.00
  108.00    348.00      1.22  -999.99     1.22      0.0000     -0.00 LINEAR  3.9130E-03   -164.90  0.0000E+00      0.00
  112.00    348.00      0.99  -999.99     0.99      0.0000     -0.00 LINEAR  3.8098E-03   -166.83  0.0000E+00      0.00
  116.00    348.00      0.71  -999.99     0.71      0.0000     -0.00 LINEAR  3.6877E-03   -168.82  0.0000E+00      0.00
  120.00    348.00      0.37  -999.99     0.37      0.0000     -0.00 LINEAR  3.5473E-03   -170.87  0.0000E+00      0.00
  124.00    348.00     -0.02  -999.99    -0.02      0.0000     -0.00 LINEAR  3.3897E-03   -172.96  0.0000E+00      0.00
  128.00    348.00     -0.48  -999.99    -0.48      0.0000     -0.00 LINEAR  3.2159E-03   -175.09  0.0000E+00      0.00
  132.00    348.00     -1.01  -999.99    -1.01      0.0000     -0.00 LINEAR  3.0269E-03   -177.24  0.0000E+00      0.00
  136.00    348.00     -1.61  -999.99    -1.61      0.0000     -0.00 LINEAR  2.8238E-03   -179.41  0.0000E+00      0.00
  140.00    348.00     -2.30  -999.99    -2.30      0.0000     -0.00 LINEAR  2.6078E-03    178.41  0.0000E+00      0.00
  144.00    348.00     -3.10  -999.99    -3.10      0.0000     -0.00 LINEAR  2.3801E-03    176.24  0.0000E+00      0.00
  148.00    348.00     -4.01  -999.99    -4.01      0.0000     -0.00 LINEAR  2.1418E-03    174.09  0.0000E+00      0.00
  152.00    348.00     -5.08  -999.99    -5.08      0.0000     -0.00 LINEAR  1.8943E-03    171.97  0.0000E+00      0.00
  156.00    348.00     -6.34  -999.99    -6.34      0.0000     -0.00 LINEAR  1.6386E-03    169.88  0.0000E+00      0.00
  160.00    348.00     -7.86  -999.99    -7.86      0.0000     -0.00 LINEAR  1.3760E-03    167.84  0.0000E+00      0.00
  164.00    348.00     -9.74  -999.99    -9.74      0.0000     -0.00 LINEAR  1.1076E-03    165.86  0.0000E+00      0.00
  168.00    348.00    -12.20  -999.99   -12.20      0.0000     -0.00 LINEAR  8.3470E-04    163.94  0.0000E+00      0.00
  172.00    348.00    -15.69  -999.99   -15.69      0.0000     -0.00 LINEAR  5.5836E-04    162.10  0.0000E+00      0.00
  176.00    348.00    -21.69  -999.99   -21.69      0.0000     -0.00 LINEAR  2.7975E-04    160.34  0.0000E+00      0.00
  180.00    348.00   -999.99  -999.99  -999.99      0.0000      0.00         4.0927E-14    -21.32  0.0000E+00      0.00
    0.00    352.00   -999.99  -999.99  -999.99      0.0000      0.00         0.0000E+00      0.00  0.0000E+00      0.00
    4.00    352.00    -21.68  -999.99   -21.68      0.0000     -0.00 LINEAR  2.8029E-04   -157.60  0.0000E+00      0.00
    8.00    352.00    -15.67  -999.99   -15.67      0.0000     -0.00 LINEAR  5.5944E-04   -155.82  0.0000E+00      0.00
   12.00    352.00    -12.18  -999.99   -12.18      0.0000     -0.00 LINEAR  8.3629E-04   -154.17  0.0000E+00      0.00
   16.00    352.00     -9.72  -999.99    -9.72      0.0000     -0.00 LINEAR  1.1097E-03   -152.64  0.0000E+00      0.00
   20.00    352.00     -7.84  -999.99    -7.84      0.0000     -0.00 LINEAR  1.3785E-03   -151.25  0.0000E+00      0.00
   24.00    352.00     -6.32  -999.99    -6.32      0.0000     -0.00 LINEAR  1.6415E-03   -149.99  0.0000E+00      0.00
   28.00    352.00     -5.06  -999.99    -5.06      0.0000     -0.00 LINEAR  1.8975E-03   -148.89  0.0000E+00      0.00
   32.00    352.00     -4.00  -999.99    -4.00      0.0000     -0.00 LINEAR  2.1453E-03   -147.94  0.0000E+00      0.00
   36.00    352.00     -3.08  -999.99    -3.08      0.0000     -0.00 LINEAR  2.3838E-03   -147.15  0.0000E+00      0.00
   40.00    352.00     -2.29  -999.99    -2.29      0.0000     -0.00 LINEAR  2.6117E-03   -146.52  0.0000E+00      0.00
   44.00    352.00     -1.60  -999.99    -1.60      0.0000     -0.00 LINEAR  2.8277E-03   -146.05  0.0000E+00      0.00
   48.00    352.00     -1.00  -999.99    -1.00      0.0000     -0.00 LINEAR  3.0308E-03   -145.76  0.0000E+00      0.00
   52.00    352.00     -0.47  -999.99    -0.47      0.0000     -0.00 LINEAR  3.2197E-03   -145.63  0.0000E+00      0.00
   56.00    352.00     -0.01  -999.99    -0.01      0.0000     -0.00 LINEAR  3.3934E-03   -145.67  0.0000E+00      0.00
   60.00    352.00      0.38  -999.99     0.38      0.0000     -0.00 LINEAR  3.5507E-03   -145.88  0.0000E+00      0.00
   64.00    352.00      0.71  -999.99     0.71      0.0000     -0.00 LINEAR  3.6908E-03   -146.26  0.0000E+00      0.00
   68.00    352.00      1.00  -999.99     1.00      0.0000     -0.00 LINEAR  3.8126E-03   -146.81  0.0000E+00      0.00
   72.00    352.00      1.23  -999.99     1.23      0.0000     -0.00 LINEAR  3.9154E-03   -147.53  0.0000E+00      0.00
   76.00    352.00      1.41  -999.99     1.41      0.0000     -0.00 LINEAR  3.9984E-03   -148.40  0.0000E+00      0.00
   80.00    352.00      1.55  -999.99     1.55      0.0000     -0.00 LINEAR  4.0611E-03   -149.43  0.0000E+00      0.00
   84.00    352.00      1.63  -999.99     1.63      0.0000     -0.00 LINEAR  4.1031E-03   -150.61  0.0000E+00      0.00
   88.00    352.00      1.68  -999.99     1.68      0.0000     -0.00 LINEAR  4.1240E-03   -151.93  0.0000E+00      0.00
   92.00    352.00      1.68  -999.99     1.68      0.0000     -0.00 LINEAR  4.1237E-03   -153.40  0.0000E+00      0.00
   96.00    352.00      1.63  -999.99     1.63      0.0000     -0.00 LINEAR  4.1022E-03   -155.00  0.0000E+00      0.00
  100.00    352.00      1.54  -999.99     1.54      0.0000     -0.00 LINEAR  4.0597E-03   -156.72  0.0000E+00      0.00
  104.00    352.00      1.41  -999.99     1.41      0.0000     -0.00 LINEAR  3.9965E-03   -158.55  0.0000E+00      0.00
  108.00    352.00      1.22  -999.99     1.22      0.0000     -0.00 LINEAR  3.9130E-03   -160.49  0.0000E+00      0.00
  112.00    352.00      0.99  -999.99     0.99      0.0000     -0.00 LINEAR  3.8098E-03   -162.53  0.0000E+00      0.00
  116.00    352.00      0.71  -999.99     0.71      0.0000     -0.00 LINEAR  3.6877E-03   -164.65  0.0000E+00      0.00
  120.00    352.00      0.37  -999.99     0.37      0.0000     -0.00 LINEAR  3.5473E-03   -166.85  0.0000E+00      0.00
  124.00    352.00     -0.02  -999.99    -0.02      0.0000     -0.00 LINEAR  3.3897E-03   -169.12  0.0000E+00      0.00
  128.00    352.00     -0.48  -999.99    -0.48      0.0000     -0.00 LINEAR  3.2159E-03   -171.44  0.0000E+00      0.00
  132.00    352.00     -1.01  -999.99    -1.01      0.0000     -0.00 LINEAR  3.0269E-03   -173.80  0.0000E+00      0.00
  136.00    352.00     -1.61  -999.99    -1.61      0.0000     -0.00 LINEAR  2.8238E-03   -176.19  0.0000E+00      0.00
  140.00    352.00     -2.30  -999.99    -2.30      0.0000     -0.00 LINEAR  2.6078E-03   -178.61  0.0000E+00      0.00
  144.00    352.00     -3.10  -999.99    -3.10      0.0000     -0.00 LINEAR  2.3801E-03    178.97  0.0000E+00      0.00
  148.00    352.00     -4.01  -999.99    -4.01      0.0000     -0.00 LINEAR  2.1418E-03    176.55  0.0000E+00      0.00
  152.00    352.00     -5.08  -999.99    -5.08      0.0000     -0.00 LINEAR  1.8943E-03    174.15  0.0000E+00      0.00
  156.00    352.00     -6.34  -999.99    -6.34      0.0000     -0.00 LINEAR  1.6386E-03    171.77  0.0000E+00      0.00
  160.00    352.00     -7.86  -999.99    -7.86      0.0000     -0.00 LINEAR  1.3760E-03    169.43  0.0000E+00      0.00
  164.00    352.00     -9.74  -999.99    -9.74      0.0000     -0.00 LINEAR  1.1076E-03    167.14  0.0000E+00      0.00
  168.00    352.00    -12.20  -999.99   -12.20      0.0000     -0.00 LINEAR  8.3470E-04    164.91  0.0000E+00      0.00
  172.00    352.00    -15.69  -999.99   -15.69      0.0000     -0.00 LINEAR  5.5836E-04    162.75  0.0000E+00      0.00
  176.00    352.00    -21.69  -999.99   -21.69      0.0000     -0.00 LINEAR  2.7975E-04    160.67  0.0000E+00      0.00
  180.00    352.00   -999.99  -999.99  -999.99      0.0000      0.00         4.0927E-14    -21.32  0.0000E+00      0.00
    0.00    356.00   -999.99  -999.99  -999.99      0.0000      0.00         0.0000E+00      0.00  0.0000E+00      0.00
    4.00    356.00    -21.68  -999.99   -21.68      0.0000     -0.00 LINEAR  2.8029E-04   -157.28  0.0000E+00      0.00
    8.00    356.00    -15.67  -999.99   -15.67      0.0000     -0.00 LINEAR  5.5944E-04   -155.20  0.0000E+00      0.00
   12.00    356.00    -12.18  -999.99   -12.18      0.0000     -0.00 LINEAR  8.3629E-04   -153.23  0.0000E+00      0.00
   16.00    356.00     -9.72  -999.99    -9.72      0.0000     -0.00 LINEAR  1.1097E-03   -151.40  0.0000E+00      0.00
   20.00    356.00     -7.84  -999.99    -7.84      0.0000     -0.00 LINEAR  1.3785E-03   -149.71  0.0000E+00      0.00
   24.00    356.00     -6.32  -999.99    -6.32      0.0000     -0.00 LINEAR  1.6415E-03   -148.16  0.0000E+00      0.00
   28.00    356.00     -5.06  -999.99    -5.06      0.0000     -0.00 LINEAR  1.8975E-03   -146.78  0.0000E+00      0.00
   32.00    356.00     -4.00  -999.99    -4.00      0.0000     -0.00 LINEAR  2.1453E-03   -145.55  0.0000E+00      0.00
   36.00    356.00     -3.08  -999.99    -3.08      0.0000     -0.00 LINEAR  2.3838E-03   -144.50  0.0000E+00      0.00
   40.00    356.00     -2.29  -999.99    -2.29      0.0000     -0.00 LINEAR  2.6117E-03   -143.62  0.0000E+00      0.00
   44.00    356.00     -1.60  -999.99    -1.60      0.0000     -0.00 LINEAR  2.8277E-03   -142.93  0.0000E+00      0.00
   48.00    356.00     -1.00  -999.99    -1.00      0.0000     -0.00 LINEAR  3.0308E-03   -142.41  0.0000E+00      0.00
   52.00    356.00     -0.47  -999.99    -0.47      0.0000     -0.00 LINEAR  3.2197E-03   -142.08  0.0000E+00      0.00
   56.00    356.00     -0.01  -999.99    -0.01      0.0000     -0.00 LINEAR  3.3934E-03   -141.94  0.0000E+00      0.00
   60.00    356.00      0.38  -999.99     0.38      0.0000     -0.00 LINEAR  3.5507E-03   -141.99  0.0000E+00      0.00
   64.00    356.00      0.71  -999.99     0.71      0.0000     -0.00 LINEAR  3.6908E-03   -142.22  0.0000E+00      0.00
   68.00    356.00      1.00  -999.99     1.00      0.0000     -0.00 LINEAR  3.8126E-03   -142.64  0.0000E+00      0.00
   72.00    356.00      1.23  -999.99     1.23      0.0000     -0.00 LINEAR  3.9154E-03   -143.24  0.0000E+00      0.00
   76.00    356.00      1.41  -999.99     1.41      0.0000     -0.00 LINEAR  3.9984E-03   -144.03  0.0000E+00      0.00
   80.00    356.00      1.55  -999.99     1.55      0.0000     -0.00 LINEAR  4.0611E-03   -144.99  0.0000E+00      0.00
   84.00    356.00      1.63  -999.99     1.63      0.0000     -0.00 LINEAR  4.1031E-03   -146.13  0.0000E+00      0.00
   88.00    356.00      1.68  -999.99     1.68      0.0000     -0.00 LINEAR  4.1240E-03   -147.44  0.0000E+00      0.00
   92.00    356.00      1.68  -999.99     1.68      0.0000     -0.00 LINEAR  4.1237E-03   -148.90  0.0000E+00      0.00
   96.00    356.00      1.63  -999.99     1.63      0.0000     -0.00 LINEAR  4.1022E-03   -150.52  0.0000E+00      0.00
  100.00    356.00      1.54  -999.99     1.54      0.0000     -0.00 LINEAR  4.0597E-03   -152.28  0.0000E+00      0.00
  104.00    356.00      1.41  -999.99     1.41      0.0000     -0.00 LINEAR  3.9965E-03   -154.18  0.0000E+00      0.00
  108.00    356.00      1.22  -999.99     1.22      0.0000     -0.00 LINEAR  3.9130E-03   -156.21  0.0000E+00      0.00
  112.00    356.00      0.99  -999.99     0.99      0.0000     -0.00 LINEAR  3.8098E-03   -158.35  0.0000E+00      0.00
  116.00    356.00      0.71  -999.99     0.71      0.0000     -0.00 LINEAR  3.6877E-03   -160.61  0.0000E+00      0.00
  120.00    356.00      0.37  -999.99     0.37      0.0000     -0.00 LINEAR  3.5473E-03   -162.95  0.0000E+00      0.00
  124.00    356.00     -0.02  -999.99    -0.02      0.0000     -0.00 LINEAR  3.3897E-03   -165.38  0.0000E+00      0.00
  128.00    356.00     -0.48  -999.99    -0.48      0.0000     -0.00 LINEAR  3.2159E-03   -167.89  0.0000E+00      0.00
  132.00    356.00     -1.01  -999.99    -1.01      0.0000     -0.00 LINEAR  3.0269E-03   -170.45  0.0000E+00      0.00
  136.00    356.00     -1.61  -999.99    -1.61      0.0000     -0.00 LINEAR  2.8238E-03   -173.07  0.0000E+00      0.00
  140.00    356.00     -2.30  -999.99    -2.30      0.0000     -0.00 LINEAR  2.6078E-03   -175.71  0.0000E+00      0.00
  144.00    356.00     -3.10  -999.99    -3.10      0.0000     -0.00 LINEAR  2.3801E-03   -178.38  0.0000E+00      0.00
  148.00    356.00     -4.01  -999.99    -4.01      0.0000     -0.00 LINEAR  2.1418E-03    178.94  0.0000E+00      0.00
  152.00    356.00     -5.08  -999.99    -5.08      0.0000     -0.00 LINEAR  1.8943E-03    176.26  0.0000E+00      0.00
  156.00    356.00     -6.34  -999.99    -6.34      0.0000     -0.00 LINEAR  1.6386E-03    173.60  0.0000E+00      0.00
  160.00    356.00     -7.86  -999.99    -7.86      0.0000     -0.00 LINEAR  1.3760E-03    170.97  0.0000E+00      0.00
  164.00    356.00     -9.74  -999.99    -9.74      0.0000     -0.00 LINEAR  1.1076E-03    168.38  0.0000E+00      0.00
  168.00    356.00    -12.20  -999.99   -12.20      0.0000     -0.00 LINEAR  8.3470E-04    165.84  0.0000E+00      0.00
  172.00    356.00    -15.69  -999.99   -15.69      0.0000     -0.00 LINEAR  5.5836E-04    163.37  0.0000E+00      0.00
  176.00    356.00    -21.69  -999.99   -21.69      0.0000     -0.00 LINEAR  2.7975E-04    160.98  0.0000E+00      0.00
  180.00    356.00   -999.99  -999.99  -999.99      0.0000      0.00         4.0927E-14    -21.32  0.0000E+00      0.00








*****  DATA CARD N0.   5 EN   0     0     0     0  0.00000E+00  0.00000E+00  0.00000E+00  0.00000E+00  0.00000E+00  0.00000E+00

  TOTAL RUN TIME: 30 msec