


                                __________________________________________
                               |                                          |
                               | NUMERICAL ELECTROMAGNETICS CODE (nec2++) |
                               | Translated to 'C++' in Double Precision  |
                               |        Version 1.5.1 [2014-01-02]        |
                               |__________________________________________|



                                -------- STRUCTURE SPECIFICATION --------
                                COORDINATES MUST BE INPUT IN
                                METERS OR BE SCALED TO METERS
                                BEFORE STRUCTURE INPUT IS ENDED
  WIRE                                                                                 SEG FIRST  LAST  TAG
   No:        X1         Y1         Z1         X2         Y2         Z2       RADIUS   No:   SEG   SEG  No:

     1     -0.6096    -0.4064     0.0000    -0.6096    -0.4064     0.9800     0.0010     8     1     8    1
     STRUCTURE SCALED BY FACTOR:    1.00000

     TOTAL SEGMENTS USED: 8   SEGMENTS IN A SYMMETRIC CELL: 8   SYMMETRY FLAG: 0


                               ---------- SEGMENTATION DATA ----------
                                        COORDINATES IN METERS
                            I+ AND I- INDICATE THE SEGMENTS BEFORE AND AFTER I

   SEG    COORDINATES OF SEGM CENTER     SEGM    ORIENTATION ANGLES    WIRE    CONNECTION DATA   TAG
   No:       X         Y         Z      LENGTH     ALPHA      BETA    RADIUS    I-     I    I+   NO:
     1   -0.6096   -0.4064    0.0612    0.1225   90.0000    0.0000    0.0010     0     1     2     1
     2   -0.6096   -0.4064    0.1837    0.1225   90.0000    0.0000    0.0010     1     2     3     1
     3   -0.6096   -0.4064    0.3063    0.1225   90.0000    0.0000    0.0010     2     3     4     1
     4   -0.6096   -0.4064    0.4287    0.1225   90.0000    0.0000    0.0010     3     4     5     1
     5   -0.6096   -0.4064    0.5513    0.1225   90.0000    0.0000    0.0010     4     5     6     1
     6   -0.6096   -0.4064    0.6738    0.1225   90.0000    0.0000    0.0010     5     6     7     1
     7   -0.6096   -0.4064    0.7963    0.1225   90.0000    0.0000    0.0010     6     7     8     1
     8   -0.6096   -0.4064    0.9188    0.1225   90.0000    0.0000    0.0010     7     8     0     1



*****  DATA CARD N0.   1 GN  -1     0     0     0  0.00000E+00  0.00000E+00  0.00000E+00  0.00000E+00  0.00000E+00  0.00000E+00
*****  DATA CARD N0.   2 FR   0     1     0     0  1.00000E+02  1.00000E+01  0.00000E+00  0.00000E+00  0.00000E+00  0.00000E+00
*****  DATA CARD N0.   3 EX   0     1     1     0  1.00000E+00  0.00000E+00  0.00000E+00  0.00000E+00  0.00000E+00  0.00000E+00
*****  DATA CARD N0.   4 RP   0    46    90  1000  0.00000E+00  0.00000E+00  4.00000E+00  4.00000E+00  0.00000E+00  0.00000E+00


                               --------- FREQUENCY --------
                               FREQUENCY=  1.0000E+02 MHZ
                               WAVELENGTH= 2.9980E+00 METERS


                        APPROXIMATE INTEGRATION EMPLOYED FOR SEGMENTS
                        THAT ARE MORE THAN 1.000 WAVELENGTHS APART



                          ------ STRUCTURE IMPEDANCE LOADING ------
                                 THIS STRUCTURE IS NOT LOADED



                            -------- ANTENNA ENVIRONMENT --------
                            FREE SPACE



                             ---------- MATRIX TIMING ----------
                               FILL= 0 msec  FACTOR: 0 msec


                      ----- ANTENNA INPUT PARAMETERS -----
  TAG   SEG       VOLTAGE (VOLTS)         CURRENT (AMPS)         IMPEDANCE (OHMS)        ADMITTANCE (MHOS)     POWER
  NO.   NO.     REAL      IMAGINARY     REAL      IMAGINARY     REAL      IMAGINARY    REAL       IMAGINARY   (WATTS)
   1     1  1.0000E+00  0.0000E+00  1.1782E-05  4.2533E-04  6.5077E+01 -2.3493E+03  1.1782E-05  4.2533E-04  5.8910E-06







                        ----- CURRENTS AND LOCATION -----
                            DISTANCES IN WAVELENGTHS 

   SEG  TAG    COORDINATES OF SEGM CENTER     SEGM    ------------- CURRENT (AMPS) -------------
   No:  No:       X         Y         Z      LENGTH     REAL      IMAGINARY    MAGN        PHASE
     1    1   -0.2033   -0.1356    0.0204   0.04086  1.1782E-05  4.2533E-04  4.2549E-04   88.413 
     2    1   -0.2033   -0.1356    0.0613   0.04086  2.9137E-05  5.4667E-04  5.4745E-04   86.949 
     3    1   -0.2033   -0.1356    0.1022   0.04086  4.0620E-05  5.3154E-04  5.3309E-04   85.630 
     4    1   -0.2033   -0.1356    0.1430   0.04086  4.6409E-05  4.9504E-04  4.9721E-04   84.644 
     5    1   -0.2033   -0.1356    0.1839   0.04086  4.6319E-05  4.2987E-04  4.3236E-04   83.850 
     6    1   -0.2033   -0.1356    0.2247   0.04086  4.0383E-05  3.3759E-04  3.4000E-04   83.179 
     7    1   -0.2033   -0.1356    0.2656   0.04086  2.8851E-05  2.2177E-04  2.2364E-04   82.588 
     8    1   -0.2033   -0.1356    0.3065   0.04086  1.1619E-05  8.3274E-05  8.4081E-05   82.057 






                               ---------- POWER BUDGET ---------
                               INPUT POWER   =  5.8910E-06 Watts
                               RADIATED POWER=  5.8910E-06 Watts
                               STRUCTURE LOSS=  0.0000E+00 Watts
                               NETWORK LOSS  =  0.0000E+00 Watts
                               EFFICIENCY    =  100.00 Percent


                         ----- RADIATION PATTERNS -----
 ---- ANGLES -----     ----- POWER GAINS -----       ---- POLARIZATION ----   ---- E(THETA) ----    ----- E(PHI) ------
  THETA      PHI       VERTC   HORIZ   TOTAL       AXIAL      TILT  SENSE   MAGNITUDE    PHASE    MAGNITUDE     PHASE
 DEGREES   DEGREES        DB       DB       DB       RATIO   DEGREES            VOLTS/M   DEGREES     VOLTS/M   DEGREES
    0.00      0.00   -999.99  -999.99  -999.99      0.0000      0.00         0.0000E+00      0.00  0.0000E+00      0.00
    4.00      0.00    -22.16  -999.99   -22.16      0.0000     -0.00 LINEAR  1.4651E-03   -142.04  0.0000E+00      0.00
    8.00      0.00    -16.15  -999.99   -16.15      0.0000     -0.00 LINEAR  2.9280E-03   -147.46  0.0000E+00      0.00
   12.00      0.00    -12.64  -999.99   -12.64      0.0000     -0.00 LINEAR  4.3860E-03   -153.07  0.0000E+00      0.00
   16.00      0.00    -10.16  -999.99   -10.16      0.0000     -0.00 LINEAR  5.8363E-03   -158.82  0.0000E+00      0.00
   20.00      0.00     -8.24  -999.99    -8.24      0.0000     -0.00 LINEAR  7.2755E-03   -164.70  0.0000E+00      0.00
   24.00      0.00     -6.69  -999.99    -6.69      0.0000     -0.00 LINEAR  8.6996E-03   -170.68  0.0000E+00      0.00
   28.00      0.00     -5.39  -999.99    -5.39      0.0000     -0.00 LINEAR  1.0104E-02   -176.73  0.0000E+00      0.00
   32.00      0.00     -4.28  -999.99    -4.28      0.0000     -0.00 LINEAR  1.1482E-02    177.19  0.0000E+00      0.00
   36.00      0.00     -3.32  -999.99    -3.32      0.0000     -0.00 LINEAR  1.2827E-02    171.10  0.0000E+00      0.00
   40.00      0.00     -2.48  -999.99    -2.48      0.0000     -0.00 LINEAR  1.4133E-02    165.02  0.0000E+00      0.00
   44.00      0.00     -1.74  -999.99    -1.74      0.0000     -0.00 LINEAR  1.5390E-02    158.99  0.0000E+00      0.00
   48.00      0.00     -1.08  -999.99    -1.08      0.0000     -0.00 LINEAR  1.6589E-02    153.04  0.0000E+00      0.00
   52.00      0.00     -0.51  -999.99    -0.51      0.0000     -0.00 LINEAR  1.7721E-02    147.19  0.0000E+00      0.00
   56.00      0.00     -0.01  -999.99    -0.01      0.0000     -0.00 LINEAR  1.8775E-02    141.48  0.0000E+00      0.00
   60.00      0.00      0.43  -999.99     0.43      0.0000     -0.00 LINEAR  1.9741E-02    135.93  0.0000E+00      0.00
   64.00      0.00      0.80  -999.99     0.80      0.0000     -0.00 LINEAR  2.0610E-02    130.57  0.0000E+00      0.00
   68.00      0.00      1.12  -999.99     1.12      0.0000     -0.00 LINEAR  2.1371E-02    125.42  0.0000E+00      0.00
   72.00      0.00      1.37  -999.99     1.37      0.0000     -0.00 LINEAR  2.2016E-02    120.51  0.0000E+00      0.00
   76.00      0.00      1.58  -999.99     1.58      0.0000     -0.00 LINEAR  2.2537E-02    115.86  0.0000E+00      0.00
   80.00      0.00      1.73  -999.99     1.73      0.0000     -0.00 LINEAR  2.2927E-02    111.50  0.0000E+00      0.00
   84.00      0.00      1.82  -999.99     1.82      0.0000     -0.00 LINEAR  2.3181E-02    107.45  0.0000E+00      0.00
   88.00      0.00      1.87  -999.99     1.87      0.0000     -0.00 LINEAR  2.3297E-02    103.73  0.0000E+00      0.00
   92.00      0.00      1.86  -999.99     1.86      0.0000     -0.00 LINEAR  2.3272E-02    100.36  0.0000E+00      0.00
   96.00      0.00      1.79  -999.99     1.79      0.0000     -0.00 LINEAR  2.3107E-02     97.36  0.0000E+00      0.00
  100.00      0.00      1.68  -999.99     1.68      0.0000     -0.00 LINEAR  2.2805E-02     94.73  0.0000E+00      0.00
  104.00      0.00      1.51  -999.99     1.51      0.0000     -0.00 LINEAR  2.2370E-02     92.50  0.0000E+00      0.00
  108.00      0.00      1.29  -999.99     1.29      0.0000     -0.00 LINEAR  2.1809E-02     90.67  0.0000E+00      0.00
  112.00      0.00      1.02  -999.99     1.02      0.0000      0.00 LINEAR  2.1127E-02     89.26  0.0000E+00      0.00
  116.00      0.00      0.68  -999.99     0.68      0.0000      0.00 LINEAR  2.0334E-02     88.27  0.0000E+00      0.00
  120.00      0.00      0.29  -999.99     0.29      0.0000      0.00 LINEAR  1.9439E-02     87.71  0.0000E+00      0.00
  124.00      0.00     -0.16  -999.99    -0.16      0.0000      0.00 LINEAR  1.8453E-02     87.57  0.0000E+00      0.00
  128.00      0.00     -0.68  -999.99    -0.68      0.0000      0.00 LINEAR  1.7386E-02     87.87  0.0000E+00      0.00
  132.00      0.00     -1.26  -999.99    -1.26      0.0000      0.00 LINEAR  1.6247E-02     88.60  0.0000E+00      0.00
  136.00      0.00     -1.93  -999.99    -1.93      0.0000      0.00 LINEAR  1.5048E-02     89.75  0.0000E+00      0.00
  140.00      0.00     -2.68  -999.99    -2.68      0.0000     -0.00 LINEAR  1.3798E-02     91.32  0.0000E+00      0.00
  144.00      0.00     -3.54  -999.99    -3.54      0.0000     -0.00 LINEAR  1.2506E-02     93.30  0.0000E+00      0.00
  148.00      0.00     -4.51  -999.99    -4.51      0.0000     -0.00 LINEAR  1.1180E-02     95.68  0.0000E+00      0.00
  152.00      0.00     -5.63  -999.99    -5.63      0.0000     -0.00 LINEAR  9.8264E-03     98.45  0.0000E+00      0.00
  156.00      0.00     -6.94  -999.99    -6.94      0.0000     -0.00 LINEAR  8.4523E-03    101.60  0.0000E+00      0.00
  160.00      0.00     -8.50  -999.99    -8.50      0.0000     -0.00 LINEAR  7.0625E-03    105.10  0.0000E+00      0.00
  164.00      0.00    -10.42  -999.99   -10.42      0.0000     -0.00 LINEAR  5.6613E-03    108.94  0.0000E+00      0.00
  168.00      0.00    -12.91  -999.99   -12.91      0.0000     -0.00 LINEAR  4.2520E-03    113.10  0.0000E+00      0.00
  172.00      0.00    -16.42  -999.99   -16.42      0.0000     -0.00 LINEAR  2.8373E-03    117.56  0.0000E+00      0.00
  176.00      0.00    -22.44  -999.99   -22.44      0.0000     -0.00 LINEAR  1.4194E-03    122.30  0.0000E+00      0.00
  180.00      0.00   -999.99  -999.99  -999.99      0.0000      0.00         2.0756E-13    -52.71  0.0000E+00      0.00
    0.00      4.00   -999.99  -999.99  -999.99      0.0000      0.00         0.0000E+00      0.00  0.0000E+00      0.00
    4.00      4.00    -22.16  -999.99   -22.16      0.0000     -0.00 LINEAR  1.4651E-03   -142.26  0.0000E+00      0.00
    8.00      4.00    -16.15  -999.99   -16.15      0.0000     -0.00 LINEAR  2.9280E-03   -147.91  0.0000E+00      0.00
   12.00      4.00    -12.64  -999.99   -12.64      0.0000     -0.00 LINEAR  4.3860E-03   -153.74  0.0000E+00      0.00
   16.00      4.00    -10.16  -999.99   -10.16      0.0000     -0.00 LINEAR  5.8363E-03   -159.71  0.0000E+00      0.00
   20.00      4.00     -8.24  -999.99    -8.24      0.0000     -0.00 LINEAR  7.2755E-03   -165.81  0.0000E+00      0.00
   24.00      4.00     -6.69  -999.99    -6.69      0.0000     -0.00 LINEAR  8.6996E-03   -171.99  0.0000E+00      0.00
   28.00      4.00     -5.39  -999.99    -5.39      0.0000     -0.00 LINEAR  1.0104E-02   -178.24  0.0000E+00      0.00
   32.00      4.00     -4.28  -999.99    -4.28      0.0000     -0.00 LINEAR  1.1482E-02    175.48  0.0000E+00      0.00
   36.00      4.00     -3.32  -999.99    -3.32      0.0000     -0.00 LINEAR  1.2827E-02    169.20  0.0000E+00      0.00
   40.00      4.00     -2.48  -999.99    -2.48      0.0000     -0.00 LINEAR  1.4133E-02    162.95  0.0000E+00      0.00
   44.00      4.00     -1.74  -999.99    -1.74      0.0000     -0.00 LINEAR  1.5390E-02    156.75  0.0000E+00      0.00
   48.00      4.00     -1.08  -999.99    -1.08      0.0000     -0.00 LINEAR  1.6589E-02    150.64  0.0000E+00      0.00
   52.00      4.00     -0.51  -999.99    -0.51      0.0000     -0.00 LINEAR  1.7721E-02    144.65  0.0000E+00      0.00
   56.00      4.00     -0.01  -999.99    -0.01      0.0000     -0.00 LINEAR  1.8775E-02    138.81  0.0000E+00      0.00
   60.00      4.00      0.43  -999.99     0.43      0.0000     -0.00 LINEAR  1.9741E-02    133.14  0.0000E+00      0.00
   64.00      4.00      0.80  -999.99     0.80      0.0000     -0.00 LINEAR  2.0610E-02    127.67  0.0000E+00      0.00
   68.00      4.00      1.12  -999.99     1.12      0.0000     -0.00 LINEAR  2.1371E-02    122.43  0.0000E+00      0.00
   72.00      4.00      1.37  -999.99     1.37      0.0000     -0.00 LINEAR  2.2016E-02    117.44  0.0000E+00      0.00
   76.00      4.00      1.58  -999.99     1.58      0.0000     -0.00 LINEAR  2.2537E-02    112.73  0.0000E+00      0.00
   80.00      4.00      1.73  -999.99     1.73      0.0000     -0.00 LINEAR  2.2927E-02    108.33  0.0000E+00      0.00
   84.00      4.00      1.82  -999.99     1.82      0.0000     -0.00 LINEAR  2.3181E-02    104.25  0.0000E+00      0.00
   88.00      4.00      1.87  -999.99     1.87      0.0000     -0.00 LINEAR  2.3297E-02    100.51  0.0000E+00      0.00
   92.00      4.00      1.86  -999.99     1.86      0.0000     -0.00 LINEAR  2.3272E-02     97.14  0.0000E+00      0.00
   96.00      4.00      1.79  -999.99     1.79      0.0000     -0.00 LINEAR  2.3107E-02     94.15  0.0000E+00      0.00
  100.00      4.00      1.68  -999.99     1.68      0.0000     -0.00 LINEAR  2.2805E-02     91.55  0.0000E+00      0.00
  104.00      4.00      1.51  -999.99     1.51      0.0000      0.00 LINEAR  2.2370E-02     89.37  0.0000E+00      0.00
  108.00      4.00      1.29  -999.99     1.29      0.0000      0.00 LINEAR  2.1809E-02     87.60  0.0000E+00      0.00
  112.00      4.00      1.02  -999.99     1.02      0.0000      0.00 LINEAR  2.1127E-02     86.27  0.0000E+00      0.00
  116.00      4.00      0.68  -999.99     0.68      0.0000      0.00 LINEAR  2.0334E-02     85.37  0.0000E+00      0.00
  120.00      4.00      0.29  -999.99     0.29      0.0000      0.00 LINEAR  1.9439E-02     84.91  0.0000E+00      0.00
  124.00      4.00     -0.16  -999.99    -0.16      0.0000      0.00 LINEAR  1.8453E-02     84.90  0.0000E+00      0.00
  128.00      4.00     -0.68  -999.99    -0.68      0.0000      0.00 LINEAR  1.7386E-02     85.33  0.0000E+00      0.00
  132.00      4.00     -1.26  -999.99    -1.26      0.0000      0.00 LINEAR  1.6247E-02     86.20  0.0000E+00      0.00
  136.00      4.00     -1.93  -999.99    -1.93      0.0000      0.00 LINEAR  1.5048E-02     87.51  0.0000E+00      0.00
  140.00      4.00     -2.68  -999.99    -2.68      0.0000      0.00 LINEAR  1.3798E-02     89.25  0.0000E+00      0.00
  144.00      4.00     -3.54  -999.99    -3.54      0.0000     -0.00 LINEAR  1.2506E-02     91.40  0.0000E+00      0.00
  148.00      4.00     -4.51  -999.99    -4.51      0.0000     -0.00 LINEAR  1.1180E-02     93.97  0.0000E+00      0.00
  152.00      4.00     -5.63  -999.99    -5.63      0.0000     -0.00 LINEAR  9.8264E-03     96.94  0.0000E+00      0.00
  156.00      4.00     -6.94  -999.99    -6.94      0.0000     -0.00 LINEAR  8.4523E-03    100.28  0.0000E+00      0.00
  160.00      4.00     -8.50  -999.99    -8.50      0.0000     -0.00 LINEAR  7.0625E-03    103.99  0.0000E+00      0.00
  164.00      4.00    -10.42  -999.99   -10.42      0.0000     -0.00 LINEAR  5.6613E-03    108.05  0.0000E+00      0.00
  168.00      4.00    -12.91  -999.99   -12.91      0.0000     -0.00 LINEAR  4.2520E-03    112.43  0.0000E+00      0.00
  172.00      4.00    -16.42  -999.99   -16.42      0.0000     -0.00 LINEAR  2.8373E-03    117.11  0.0000E+00      0.00
  176.00      4.00    -22.44  -999.99   -22.44      0.0000     -0.00 LINEAR  1.4194E-03    122.07  0.0000E+00      0.00
  180.00      4.00   -999.99  -999.99  -999.99      0.0000      0.00         2.0756E-13    -52.71  0.0000E+00      0.00
    0.00      8.00   -999.99  -999.99  -999.99      0.0000      0.00         0.0000E+00      0.00  0.0000E+00      0.00
    4.00      8.00    -22.16  -999.99   -22.16      0.0000     -0.00 LINEAR  1.4651E-03   -142.46  0.0000E+00      0.00
    8.00      8.00    -16.15  -999.99   -16.15      0.0000     -0.00 LINEAR  2.9280E-03   -148.31  0.0000E+00      0.00
   12.00      8.00    -12.64  -999.99   -12.64      0.0000     -0.00 LINEAR  4.3860E-03   -154.33  0.0000E+00      0.00
   16.00      8.00    -10.16  -999.99   -10.16      0.0000     -0.00 LINEAR  5.8363E-03   -160.50  0.0000E+00      0.00
   20.00      8.00     -8.24  -999.99    -8.24      0.0000     -0.00 LINEAR  7.2755E-03   -166.78  0.0000E+00      0.00
   24.00      8.00     -6.69  -999.99    -6.69      0.0000     -0.00 LINEAR  8.6996E-03   -173.15  0.0000E+00      0.00
   28.00      8.00     -5.39  -999.99    -5.39      0.0000     -0.00 LINEAR  1.0104E-02   -179.58  0.0000E+00      0.00
   32.00      8.00     -4.28  -999.99    -4.28      0.0000     -0.00 LINEAR  1.1482E-02    173.97  0.0000E+00      0.00
   36.00      8.00     -3.32  -999.99    -3.32      0.0000     -0.00 LINEAR  1.2827E-02    167.52  0.0000E+00      0.00
   40.00      8.00     -2.48  -999.99    -2.48      0.0000     -0.00 LINEAR  1.4133E-02    161.11  0.0000E+00      0.00
   44.00      8.00     -1.74  -999.99    -1.74      0.0000     -0.00 LINEAR  1.5390E-02    154.77  0.0000E+00      0.00
   48.00      8.00     -1.08  -999.99    -1.08      0.0000     -0.00 LINEAR  1.6589E-02    148.52  0.0000E+00      0.00
   52.00      8.00     -0.51  -999.99    -0.51      0.0000     -0.00 LINEAR  1.7721E-02    142.40  0.0000E+00      0.00
   56.00      8.00     -0.01  -999.99    -0.01      0.0000     -0.00 LINEAR  1.8775E-02    136.44  0.0000E+00      0.00
   60.00      8.00      0.43  -999.99     0.43      0.0000     -0.00 LINEAR  1.9741E-02    130.67  0.0000E+00      0.00
   64.00      8.00      0.80  -999.99     0.80      0.0000     -0.00 LINEAR  2.0610E-02    125.10  0.0000E+00      0.00
   68.00      8.00      1.12  -999.99     1.12      0.0000     -0.00 LINEAR  2.1371E-02    119.78  0.0000E+00      0.00
   72.00      8.00      1.37  -999.99     1.37      0.0000     -0.00 LINEAR  2.2016E-02    114.73  0.0000E+00      0.00
   76.00      8.00      1.58  -999.99     1.58      0.0000     -0.00 LINEAR  2.2537E-02    109.96  0.0000E+00      0.00
   80.00      8.00      1.73  -999.99     1.73      0.0000     -0.00 LINEAR  2.2927E-02    105.52  0.0000E+00      0.00
   84.00      8.00      1.82  -999.99     1.82      0.0000     -0.00 LINEAR  2.3181E-02    101.41  0.0000E+00      0.00
   88.00      8.00      1.87  -999.99     1.87      0.0000     -0.00 LINEAR  2.3297E-02     97.66  0.0000E+00      0.00
   92.00      8.00      1.86  -999.99     1.86      0.0000     -0.00 LINEAR  2.3272E-02     94.29  0.0000E+00      0.00
   96.00      8.00      1.79  -999.99     1.79      0.0000     -0.00 LINEAR  2.3107E-02     91.31  0.0000E+00      0.00
  100.00      8.00      1.68  -999.99     1.68      0.0000      0.00 LINEAR  2.2805E-02     88.74  0.0000E+00      0.00
  104.00      8.00      1.51  -999.99     1.51      0.0000      0.00 LINEAR  2.2370E-02     86.60  0.0000E+00      0.00
  108.00      8.00      1.29  -999.99     1.29      0.0000      0.00 LINEAR  2.1809E-02     84.89  0.0000E+00      0.00
  112.00      8.00      1.02  -999.99     1.02      0.0000      0.00 LINEAR  2.1127E-02     83.62  0.0000E+00      0.00
  116.00      8.00      0.68  -999.99     0.68      0.0000      0.00 LINEAR  2.0334E-02     82.80  0.0000E+00      0.00
  120.00      8.00      0.29  -999.99     0.29      0.0000      0.00 LINEAR  1.9439E-02     82.44  0.0000E+00      0.00
  124.00      8.00     -0.16  -999.99    -0.16      0.0000      0.00 LINEAR  1.8453E-02     82.53  0.0000E+00      0.00
  128.00      8.00     -0.68  -999.99    -0.68      0.0000      0.00 LINEAR  1.7386E-02     83.08  0.0000E+00      0.00
  132.00      8.00     -1.26  -999.99    -1.26      0.0000      0.00 LINEAR  1.6247E-02     84.08  0.0000E+00      0.00
  136.00      8.00     -1.93  -999.99    -1.93      0.0000      0.00 LINEAR  1.5048E-02     85.53  0.0000E+00      0.00
  140.00      8.00     -2.68  -999.99    -2.68      0.0000      0.00 LINEAR  1.3798E-02     87.41  0.0000E+00      0.00
  144.00      8.00     -3.54  -999.99    -3.54      0.0000      0.00 LINEAR  1.2506E-02     89.73  0.0000E+00      0.00
  148.00      8.00     -4.51  -999.99    -4.51      0.0000     -0.00 LINEAR  1.1180E-02     92.46  0.0000E+00      0.00
  152.00      8.00     -5.63  -999.99    -5.63      0.0000     -0.00 LINEAR  9.8264E-03     95.60  0.0000E+00      0.00
  156.00      8.00     -6.94  -999.99    -6.94      0.0000     -0.00 LINEAR  8.4523E-03     99.12  0.0000E+00      0.00
  160.00      8.00     -8.50  -999.99    -8.50      0.0000     -0.00 LINEAR  7.0625E-03    103.02  0.0000E+00      0.00
  164.00      8.00    -10.42  -999.99   -10.42      0.0000     -0.00 LINEAR  5.6613E-03    107.26  0.0000E+00      0.00
  168.00      8.00    -12.91  -999.99   -12.91      0.0000     -0.00 LINEAR  4.2520E-03    111.83  0.0000E+00      0.00
  172.00      8.00    -16.42  -999.99   -16.42      0.0000     -0.00 LINEAR  2.8373E-03    116.71  0.0000E+00      0.00
  176.00      8.00    -22.44  -999.99   -22.44      0.0000     -0.00 LINEAR  1.4194E-03    121.87  0.0000E+00      0.00
  180.00      8.00   -999.99  -999.99  -999.99      0.0000      0.00         2.0756E-13    -52.71  0.0000E+00      0.00
    0.00     12.00   -999.99  -999.99  -999.99      0.0000      0.00         0.0000E+00      0.00  0.0000E+00      0.00
    4.00     12.00    -22.16  -999.99   -22.16      0.0000     -0.00 LINEAR  1.4651E-03   -142.63  0.0000E+00      0.00
    8.00     12.00    -16.15  -999.99   -16.15      0.0000     -0.00 LINEAR  2.9280E-03   -148.65  0.0000E+00      0.00
   12.00     12.00    -12.64  -999.99   -12.64      0.0000     -0.00 LINEAR  4.3860E-03   -154.84  0.0000E+00      0.00
   16.00     12.00    -10.16  -999.99   -10.16      0.0000     -0.00 LINEAR  5.8363E-03   -161.18  0.0000E+00      0.00
   20.00     12.00     -8.24  -999.99    -8.24      0.0000     -0.00 LINEAR  7.2755E-03   -167.63  0.0000E+00      0.00
   24.00     12.00     -6.69  -999.99    -6.69      0.0000     -0.00 LINEAR  8.6996E-03   -174.16  0.0000E+00      0.00
   28.00     12.00     -5.39  -999.99    -5.39      0.0000     -0.00 LINEAR  1.0104E-02    179.26  0.0000E+00      0.00
   32.00     12.00     -4.28  -999.99    -4.28      0.0000     -0.00 LINEAR  1.1482E-02    172.66  0.0000E+00      0.00
   36.00     12.00     -3.32  -999.99    -3.32      0.0000     -0.00 LINEAR  1.2827E-02    166.07  0.0000E+00      0.00
   40.00     12.00     -2.48  -999.99    -2.48      0.0000     -0.00 LINEAR  1.4133E-02    159.53  0.0000E+00      0.00
   44.00     12.00     -1.74  -999.99    -1.74      0.0000     -0.00 LINEAR  1.5390E-02    153.05  0.0000E+00      0.00
   48.00     12.00     -1.08  -999.99    -1.08      0.0000     -0.00 LINEAR  1.6589E-02    146.69  0.0000E+00      0.00
   52.00     12.00     -0.51  -999.99    -0.51      0.0000     -0.00 LINEAR  1.7721E-02    140.46  0.0000E+00      0.00
   56.00     12.00     -0.01  -999.99    -0.01      0.0000     -0.00 LINEAR  1.8775E-02    134.40  0.0000E+00      0.00
   60.00     12.00      0.43  -999.99     0.43      0.0000     -0.00 LINEAR  1.9741E-02    128.53  0.0000E+00      0.00
   64.00     12.00      0.80  -999.99     0.80      0.0000     -0.00 LINEAR  2.0610E-02    122.89  0.0000E+00      0.00
   68.00     12.00      1.12  -999.99     1.12      0.0000     -0.00 LINEAR  2.1371E-02    117.49  0.0000E+00      0.00
   72.00     12.00      1.37  -999.99     1.37      0.0000     -0.00 LINEAR  2.2016E-02    112.38  0.0000E+00      0.00
   76.00     12.00      1.58  -999.99     1.58      0.0000     -0.00 LINEAR  2.2537E-02    107.57  0.0000E+00      0.00
   80.00     12.00      1.73  -999.99     1.73      0.0000     -0.00 LINEAR  2.2927E-02    103.09  0.0000E+00      0.00
   84.00     12.00      1.82  -999.99     1.82      0.0000     -0.00 LINEAR  2.3181E-02     98.96  0.0000E+00      0.00
   88.00     12.00      1.87  -999.99     1.87      0.0000     -0.00 LINEAR  2.3297E-02     95.19  0.0000E+00      0.00
   92.00     12.00      1.86  -999.99     1.86      0.0000     -0.00 LINEAR  2.3272E-02     91.82  0.0000E+00      0.00
   96.00     12.00      1.79  -999.99     1.79      0.0000      0.00 LINEAR  2.3107E-02     88.86  0.0000E+00      0.00
  100.00     12.00      1.68  -999.99     1.68      0.0000      0.00 LINEAR  2.2805E-02     86.31  0.0000E+00      0.00
  104.00     12.00      1.51  -999.99     1.51      0.0000      0.00 LINEAR  2.2370E-02     84.20  0.0000E+00      0.00
  108.00     12.00      1.29  -999.99     1.29      0.0000      0.00 LINEAR  2.1809E-02     82.54  0.0000E+00      0.00
  112.00     12.00      1.02  -999.99     1.02      0.0000      0.00 LINEAR  2.1127E-02     81.33  0.0000E+00      0.00
  116.00     12.00      0.68  -999.99     0.68      0.0000      0.00 LINEAR  2.0334E-02     80.59  0.0000E+00      0.00
  120.00     12.00      0.29  -999.99     0.29      0.0000      0.00 LINEAR  1.9439E-02     80.30  0.0000E+00      0.00
  124.00     12.00     -0.16  -999.99    -0.16      0.0000      0.00 LINEAR  1.8453E-02     80.49  0.0000E+00      0.00
  128.00     12.00     -0.68  -999.99    -0.68      0.0000      0.00 LINEAR  1.7386E-02     81.14  0.0000E+00      0.00
  132.00     12.00     -1.26  -999.99    -1.26      0.0000      0.00 LINEAR  1.6247E-02     82.25  0.0000E+00      0.00
  136.00     12.00     -1.93  -999.99    -1.93      0.0000      0.00 LINEAR  1.5048E-02     83.81  0.0000E+00      0.00
  140.00     12.00     -2.68  -999.99    -2.68      0.0000      0.00 LINEAR  1.3798E-02     85.83  0.0000E+00      0.00
  144.00     12.00     -3.54  -999.99    -3.54      0.0000      0.00 LINEAR  1.2506E-02     88.28  0.0000E+00      0.00
  148.00     12.00     -4.51  -999.99    -4.51      0.0000     -0.00 LINEAR  1.1180E-02     91.15  0.0000E+00      0.00
  152.00     12.00     -5.63  -999.99    -5.63      0.0000     -0.00 LINEAR  9.8264E-03     94.44  0.0000E+00      0.00
  156.00     12.00     -6.94  -999.99    -6.94      0.0000     -0.00 LINEAR  8.4523E-03     98.12  0.0000E+00      0.00
  160.00     12.00     -8.50  -999.99    -8.50      0.0000     -0.00 LINEAR  7.0625E-03    102.17  0.0000E+00      0.00
  164.00     12.00    -10.42  -999.99   -10.42      0.0000     -0.00 LINEAR  5.6613E-03    106.58  0.0000E+00      0.00
  168.00     12.00    -12.91  -999.99   -12.91      0.0000     -0.00 LINEAR  4.2520E-03    111.32  0.0000E+00      0.00
  172.00     12.00    -16.42  -999.99   -16.42      0.0000     -0.00 LINEAR  2.8373E-03    116.37  0.0000E+00      0.00
  176.00     12.00    -22.44  -999.99   -22.44      0.0000     -0.00 LINEAR  1.4194E-03    121.70  0.0000E+00      0.00
  180.00     12.00   -999.99  -999.99  -999.99      0.0000      0.00         2.0756E-13    -52.71  0.0000E+00      0.00
    0.00     16.00   -999.99  -999.99  -999.99      0.0000      0.00         0.0000E+00      0.00  0.0000E+00      0.00
    4.00     16.00    -22.16  -999.99   -22.16      0.0000     -0.00 LINEAR  1.4651E-03   -142.78  0.0000E+00      0.00
    8.00     16.00    -16.15  -999.99   -16.15      0.0000     -0.00 LINEAR  2.9280E-03   -148.94  0.0000E+00      0.00
   12.00     16.00    -12.64  -999.99   -12.64      0.0000     -0.00 LINEAR  4.3860E-03   -155.27  0.0000E+00      0.00
   16.00     16.00    -10.16  -999.99   -10.16      0.0000     -0.00 LINEAR  5.8363E-03   -161.75  0.0000E+00      0.00
   20.00     16.00     -8.24  -999.99    -8.24      0.0000     -0.00 LINEAR  7.2755E-03   -168.34  0.0000E+00      0.00
   24.00     16.00     -6.69  -999.99    -6.69      0.0000     -0.00 LINEAR  8.6996E-03   -175.00  0.0000E+00      0.00
   28.00     16.00     -5.39  -999.99    -5.39      0.0000     -0.00 LINEAR  1.0104E-02    178.29  0.0000E+00      0.00
   32.00     16.00     -4.28  -999.99    -4.28      0.0000     -0.00 LINEAR  1.1482E-02    171.56  0.0000E+00      0.00
   36.00     16.00     -3.32  -999.99    -3.32      0.0000     -0.00 LINEAR  1.2827E-02    164.86  0.0000E+00      0.00
   40.00     16.00     -2.48  -999.99    -2.48      0.0000     -0.00 LINEAR  1.4133E-02    158.20  0.0000E+00      0.00
   44.00     16.00     -1.74  -999.99    -1.74      0.0000     -0.00 LINEAR  1.5390E-02    151.62  0.0000E+00      0.00
   48.00     16.00     -1.08  -999.99    -1.08      0.0000     -0.00 LINEAR  1.6589E-02    145.15  0.0000E+00      0.00
   52.00     16.00     -0.51  -999.99    -0.51      0.0000     -0.00 LINEAR  1.7721E-02    138.83  0.0000E+00      0.00
   56.00     16.00     -0.01  -999.99    -0.01      0.0000     -0.00 LINEAR  1.8775E-02    132.68  0.0000E+00      0.00
   60.00     16.00      0.43  -999.99     0.43      0.0000     -0.00 LINEAR  1.9741E-02    126.74  0.0000E+00      0.00
   64.00     16.00      0.80  -999.99     0.80      0.0000     -0.00 LINEAR  2.0610E-02    121.03  0.0000E+00      0.00
   68.00     16.00      1.12  -999.99     1.12      0.0000     -0.00 LINEAR  2.1371E-02    115.58  0.0000E+00      0.00
   72.00     16.00      1.37  -999.99     1.37      0.0000     -0.00 LINEAR  2.2016E-02    110.41  0.0000E+00      0.00
   76.00     16.00      1.58  -999.99     1.58      0.0000     -0.00 LINEAR  2.2537E-02    105.56  0.0000E+00      0.00
   80.00     16.00      1.73  -999.99     1.73      0.0000     -0.00 LINEAR  2.2927E-02    101.05  0.0000E+00      0.00
   84.00     16.00      1.82  -999.99     1.82      0.0000     -0.00 LINEAR  2.3181E-02     96.90  0.0000E+00      0.00
   88.00     16.00      1.87  -999.99     1.87      0.0000     -0.00 LINEAR  2.3297E-02     93.13  0.0000E+00      0.00
   92.00     16.00      1.86  -999.99     1.86      0.0000      0.00 LINEAR  2.3272E-02     89.75  0.0000E+00      0.00
   96.00     16.00      1.79  -999.99     1.79      0.0000      0.00 LINEAR  2.3107E-02     86.80  0.0000E+00      0.00
  100.00     16.00      1.68  -999.99     1.68      0.0000      0.00 LINEAR  2.2805E-02     84.27  0.0000E+00      0.00
  104.00     16.00      1.51  -999.99     1.51      0.0000      0.00 LINEAR  2.2370E-02     82.20  0.0000E+00      0.00
  108.00     16.00      1.29  -999.99     1.29      0.0000      0.00 LINEAR  2.1809E-02     80.57  0.0000E+00      0.00
  112.00     16.00      1.02  -999.99     1.02      0.0000      0.00 LINEAR  2.1127E-02     79.42  0.0000E+00      0.00
  116.00     16.00      0.68  -999.99     0.68      0.0000      0.00 LINEAR  2.0334E-02     78.73  0.0000E+00      0.00
  120.00     16.00      0.29  -999.99     0.29      0.0000      0.00 LINEAR  1.9439E-02     78.51  0.0000E+00      0.00
  124.00     16.00     -0.16  -999.99    -0.16      0.0000      0.00 LINEAR  1.8453E-02     78.77  0.0000E+00      0.00
  128.00     16.00     -0.68  -999.99    -0.68      0.0000      0.00 LINEAR  1.7386E-02     79.50  0.0000E+00      0.00
  132.00     16.00     -1.26  -999.99    -1.26      0.0000      0.00 LINEAR  1.6247E-02     80.71  0.0000E+00      0.00
  136.00     16.00     -1.93  -999.99    -1.93      0.0000      0.00 LINEAR  1.5048E-02     82.37  0.0000E+00      0.00
  140.00     16.00     -2.68  -999.99    -2.68      0.0000      0.00 LINEAR  1.3798E-02     84.50  0.0000E+00      0.00
  144.00     16.00     -3.54  -999.99    -3.54      0.0000      0.00 LINEAR  1.2506E-02     87.06  0.0000E+00      0.00
  148.00     16.00     -4.51  -999.99    -4.51      0.0000     -0.00 LINEAR  1.1180E-02     90.06  0.0000E+00      0.00
  152.00     16.00     -5.63  -999.99    -5.63      0.0000     -0.00 LINEAR  9.8264E-03     93.47  0.0000E+00      0.00
  156.00     16.00     -6.94  -999.99    -6.94      0.0000     -0.00 LINEAR  8.4523E-03     97.28  0.0000E+00      0.00
  160.00     16.00     -8.50  -999.99    -8.50      0.0000     -0.00 LINEAR  7.0625E-03    101.47  0.0000E+00      0.00
  164.00     16.00    -10.42  -999.99   -10.42      0.0000     -0.00 LINEAR  5.6613E-03    106.01  0.0000E+00      0.00
  168.00     16.00    -12.91  -999.99   -12.91      0.0000     -0.00 LINEAR  4.2520E-03    110.89  0.0000E+00      0.00
  172.00     16.00    -16.42  -999.99   -16.42      0.0000     -0.00 LINEAR  2.8373E-03    116.08  0.0000E+00      0.00
  176.00     16.00    -22.44  -999.99   -22.44      0.0000     -0.00 LINEAR  1.4194E-03    121.56  0.0000E+00      0.00
  180.00     16.00   -999.99  -999.99  -999.99      0.0000      0.00         2.0756E-13    -52.71  0.0000E+00      0.00
    0.00     20.00   -999.99  -999.99  -999.99      0.0000      0.00         0.0000E+00      0.00  0.0000E+00      0.00
    4.00     20.00    -22.16  -999.99   -22.16      0.0000     -0.00 LINEAR  1.4651E-03   -142.89  0.0000E+00      0.00
    8.00     20.00    -16.15  -999.99   -16.15      0.0000     -0.00 LINEAR  2.9280E-03   -149.17  0.0000E+00      0.00
   12.00     20.00    -12.64  -999.99   -12.64      0.0000     -0.00 LINEAR  4.3860E-03   -155.62  0.0000E+00      0.00
   16.00     20.00    -10.16  -999.99   -10.16      0.0000     -0.00 LINEAR  5.8363E-03   -162.21  0.0000E+00      0.00
   20.00     20.00     -8.24  -999.99    -8.24      0.0000     -0.00 LINEAR  7.2755E-03   -168.90  0.0000E+00      0.00
   24.00     20.00     -6.69  -999.99    -6.69      0.0000     -0.00 LINEAR  8.6996E-03   -175.67  0.0000E+00      0.00
   28.00     20.00     -5.39  -999.99    -5.39      0.0000     -0.00 LINEAR  1.0104E-02    177.51  0.0000E+00      0.00
   32.00     20.00     -4.28  -999.99    -4.28      0.0000     -0.00 LINEAR  1.1482E-02    170.68  0.0000E+00      0.00
   36.00     20.00     -3.32  -999.99    -3.32      0.0000     -0.00 LINEAR  1.2827E-02    163.88  0.0000E+00      0.00
   40.00     20.00     -2.48  -999.99    -2.48      0.0000     -0.00 LINEAR  1.4133E-02    157.13  0.0000E+00      0.00
   44.00     20.00     -1.74  -999.99    -1.74      0.0000     -0.00 LINEAR  1.5390E-02    150.46  0.0000E+00      0.00
   48.00     20.00     -1.08  -999.99    -1.08      0.0000     -0.00 LINEAR  1.6589E-02    143.92  0.0000E+00      0.00
   52.00     20.00     -0.51  -999.99    -0.51      0.0000     -0.00 LINEAR  1.7721E-02    137.52  0.0000E+00      0.00
   56.00     20.00     -0.01  -999.99    -0.01      0.0000     -0.00 LINEAR  1.8775E-02    131.30  0.0000E+00      0.00
   60.00     20.00      0.43  -999.99     0.43      0.0000     -0.00 LINEAR  1.9741E-02    125.30  0.0000E+00      0.00
   64.00     20.00      0.80  -999.99     0.80      0.0000     -0.00 LINEAR  2.0610E-02    119.53  0.0000E+00      0.00
   68.00     20.00      1.12  -999.99     1.12      0.0000     -0.00 LINEAR  2.1371E-02    114.04  0.0000E+00      0.00
   72.00     20.00      1.37  -999.99     1.37      0.0000     -0.00 LINEAR  2.2016E-02    108.83  0.0000E+00      0.00
   76.00     20.00      1.58  -999.99     1.58      0.0000     -0.00 LINEAR  2.2537E-02    103.95  0.0000E+00      0.00
   80.00     20.00      1.73  -999.99     1.73      0.0000     -0.00 LINEAR  2.2927E-02     99.41  0.0000E+00      0.00
   84.00     20.00      1.82  -999.99     1.82      0.0000     -0.00 LINEAR  2.3181E-02     95.25  0.0000E+00      0.00
   88.00     20.00      1.87  -999.99     1.87      0.0000     -0.00 LINEAR  2.3297E-02     91.47  0.0000E+00      0.00
   92.00     20.00      1.86  -999.99     1.86      0.0000      0.00 LINEAR  2.3272E-02     88.09  0.0000E+00      0.00
   96.00     20.00      1.79  -999.99     1.79      0.0000      0.00 LINEAR  2.3107E-02     85.15  0.0000E+00      0.00
  100.00     20.00      1.68  -999.99     1.68      0.0000      0.00 LINEAR  2.2805E-02     82.64  0.0000E+00      0.00
  104.00     20.00      1.51  -999.99     1.51      0.0000      0.00 LINEAR  2.2370E-02     80.59  0.0000E+00      0.00
  108.00     20.00      1.29  -999.99     1.29      0.0000      0.00 LINEAR  2.1809E-02     78.99  0.0000E+00      0.00
  112.00     20.00      1.02  -999.99     1.02      0.0000      0.00 LINEAR  2.1127E-02     77.88  0.0000E+00      0.00
  116.00     20.00      0.68  -999.99     0.68      0.0000      0.00 LINEAR  2.0334E-02     77.23  0.0000E+00      0.00
  120.00     20.00      0.29  -999.99     0.29      0.0000      0.00 LINEAR  1.9439E-02     77.07  0.0000E+00      0.00
  124.00     20.00     -0.16  -999.99    -0.16      0.0000      0.00 LINEAR  1.8453E-02     77.39  0.0000E+00      0.00
  128.00     20.00     -0.68  -999.99    -0.68      0.0000      0.00 LINEAR  1.7386E-02     78.20  0.0000E+00      0.00
  132.00     20.00     -1.26  -999.99    -1.26      0.0000      0.00 LINEAR  1.6247E-02     79.47  0.0000E+00      0.00
  136.00     20.00     -1.93  -999.99    -1.93      0.0000      0.00 LINEAR  1.5048E-02     81.22  0.0000E+00      0.00
  140.00     20.00     -2.68  -999.99    -2.68      0.0000      0.00 LINEAR  1.3798E-02     83.43  0.0000E+00      0.00
  144.00     20.00     -3.54  -999.99    -3.54      0.0000      0.00 LINEAR  1.2506E-02     86.09  0.0000E+00      0.00
  148.00     20.00     -4.51  -999.99    -4.51      0.0000      0.00 LINEAR  1.1180E-02     89.18  0.0000E+00      0.00
  152.00     20.00     -5.63  -999.99    -5.63      0.0000     -0.00 LINEAR  9.8264E-03     92.69  0.0000E+00      0.00
  156.00     20.00     -6.94  -999.99    -6.94      0.0000     -0.00 LINEAR  8.4523E-03     96.60  0.0000E+00      0.00
  160.00     20.00     -8.50  -999.99    -8.50      0.0000     -0.00 LINEAR  7.0625E-03    100.90  0.0000E+00      0.00
  164.00     20.00    -10.42  -999.99   -10.42      0.0000     -0.00 LINEAR  5.6613E-03    105.55  0.0000E+00      0.00
  168.00     20.00    -12.91  -999.99   -12.91      0.0000     -0.00 LINEAR  4.2520E-03    110.55  0.0000E+00      0.00
  172.00     20.00    -16.42  -999.99   -16.42      0.0000     -0.00 LINEAR  2.8373E-03    115.85  0.0000E+00      0.00
  176.00     20.00    -22.44  -999.99   -22.44      0.0000     -0.00 LINEAR  1.4194E-03    121.44  0.0000E+00      0.00
  180.00     20.00   -999.99  -999.99  -999.99      0.0000      0.00         2.0756E-13    -52.71  0.0000E+00      0.00
    0.00     24.00   -999.99  -999.99  -999.99      0.0000      0.00         0.0000E+00      0.00  0.0000E+00      0.00
    4.00     24.00    -22.16  -999.99   -22.16      0.0000     -0.00 LINEAR  1.4651E-03   -142.98  0.0000E+00      0.00
    8.00     24.00    -16.15  -999.99   -16.15      0.0000     -0.00 LINEAR  2.9280E-03   -149.34  0.0000E+00      0.00
   12.00     24.00    -12.64  -999.99   -12.64      0.0000     -0.00 LINEAR  4.3860E-03   -155.88  0.0000E+00      0.00
   16.00     24.00    -10.16  -999.99   -10.16      0.0000     -0.00 LINEAR  5.8363E-03   -162.55  0.0000E+00      0.00
   20.00     24.00     -8.24  -999.99    -8.24      0.0000     -0.00 LINEAR  7.2755E-03   -169.33  0.0000E+00      0.00
   24.00     24.00     -6.69  -999.99    -6.69      0.0000     -0.00 LINEAR  8.6996E-03   -176.18  0.0000E+00      0.00
   28.00     24.00     -5.39  -999.99    -5.39      0.0000     -0.00 LINEAR  1.0104E-02    176.93  0.0000E+00      0.00
   32.00     24.00     -4.28  -999.99    -4.28      0.0000     -0.00 LINEAR  1.1482E-02    170.02  0.0000E+00      0.00
   36.00     24.00     -3.32  -999.99    -3.32      0.0000     -0.00 LINEAR  1.2827E-02    163.15  0.0000E+00      0.00
   40.00     24.00     -2.48  -999.99    -2.48      0.0000     -0.00 LINEAR  1.4133E-02    156.33  0.0000E+00      0.00
   44.00     24.00     -1.74  -999.99    -1.74      0.0000     -0.00 LINEAR  1.5390E-02    149.60  0.0000E+00      0.00
   48.00     24.00     -1.08  -999.99    -1.08      0.0000     -0.00 LINEAR  1.6589E-02    142.99  0.0000E+00      0.00
   52.00     24.00     -0.51  -999.99    -0.51      0.0000     -0.00 LINEAR  1.7721E-02    136.54  0.0000E+00      0.00
   56.00     24.00     -0.01  -999.99    -0.01      0.0000     -0.00 LINEAR  1.8775E-02    130.27  0.0000E+00      0.00
   60.00     24.00      0.43  -999.99     0.43      0.0000     -0.00 LINEAR  1.9741E-02    124.22  0.0000E+00      0.00
   64.00     24.00      0.80  -999.99     0.80      0.0000     -0.00 LINEAR  2.0610E-02    118.41  0.0000E+00      0.00
   68.00     24.00      1.12  -999.99     1.12      0.0000     -0.00 LINEAR  2.1371E-02    112.88  0.0000E+00      0.00
   72.00     24.00      1.37  -999.99     1.37      0.0000     -0.00 LINEAR  2.2016E-02    107.65  0.0000E+00      0.00
   76.00     24.00      1.58  -999.99     1.58      0.0000     -0.00 LINEAR  2.2537E-02    102.74  0.0000E+00      0.00
   80.00     24.00      1.73  -999.99     1.73      0.0000     -0.00 LINEAR  2.2927E-02     98.19  0.0000E+00      0.00
   84.00     24.00      1.82  -999.99     1.82      0.0000     -0.00 LINEAR  2.3181E-02     94.01  0.0000E+00      0.00
   88.00     24.00      1.87  -999.99     1.87      0.0000     -0.00 LINEAR  2.3297E-02     90.22  0.0000E+00      0.00
   92.00     24.00      1.86  -999.99     1.86      0.0000      0.00 LINEAR  2.3272E-02     86.85  0.0000E+00      0.00
   96.00     24.00      1.79  -999.99     1.79      0.0000      0.00 LINEAR  2.3107E-02     83.91  0.0000E+00      0.00
  100.00     24.00      1.68  -999.99     1.68      0.0000      0.00 LINEAR  2.2805E-02     81.41  0.0000E+00      0.00
  104.00     24.00      1.51  -999.99     1.51      0.0000      0.00 LINEAR  2.2370E-02     79.38  0.0000E+00      0.00
  108.00     24.00      1.29  -999.99     1.29      0.0000      0.00 LINEAR  2.1809E-02     77.81  0.0000E+00      0.00
  112.00     24.00      1.02  -999.99     1.02      0.0000      0.00 LINEAR  2.1127E-02     76.72  0.0000E+00      0.00
  116.00     24.00      0.68  -999.99     0.68      0.0000      0.00 LINEAR  2.0334E-02     76.12  0.0000E+00      0.00
  120.00     24.00      0.29  -999.99     0.29      0.0000      0.00 LINEAR  1.9439E-02     76.00  0.0000E+00      0.00
  124.00     24.00     -0.16  -999.99    -0.16      0.0000      0.00 LINEAR  1.8453E-02     76.36  0.0000E+00      0.00
  128.00     24.00     -0.68  -999.99    -0.68      0.0000      0.00 LINEAR  1.7386E-02     77.22  0.0000E+00      0.00
  132.00     24.00     -1.26  -999.99    -1.26      0.0000      0.00 LINEAR  1.6247E-02     78.55  0.0000E+00      0.00
  136.00     24.00     -1.93  -999.99    -1.93      0.0000      0.00 LINEAR  1.5048E-02     80.36  0.0000E+00      0.00
  140.00     24.00     -2.68  -999.99    -2.68      0.0000      0.00 LINEAR  1.3798E-02     82.63  0.0000E+00      0.00
  144.00     24.00     -3.54  -999.99    -3.54      0.0000      0.00 LINEAR  1.2506E-02     85.35  0.0000E+00      0.00
  148.00     24.00     -4.51  -999.99    -4.51      0.0000      0.00 LINEAR  1.1180E-02     88.52  0.0000E+00      0.00
  152.00     24.00     -5.63  -999.99    -5.63      0.0000     -0.00 LINEAR  9.8264E-03     92.10  0.0000E+00      0.00
  156.00     24.00     -6.94  -999.99    -6.94      0.0000     -0.00 LINEAR  8.4523E-03     96.10  0.0000E+00      0.00
  160.00     24.00     -8.50  -999.99    -8.50      0.0000     -0.00 LINEAR  7.0625E-03    100.47  0.0000E+00      0.00
  164.00     24.00    -10.42  -999.99   -10.42      0.0000     -0.00 LINEAR  5.6613E-03    105.21  0.0000E+00      0.00
  168.00     24.00    -12.91  -999.99   -12.91      0.0000     -0.00 LINEAR  4.2520E-03    110.29  0.0000E+00      0.00
  172.00     24.00    -16.42  -999.99   -16.42      0.0000     -0.00 LINEAR  2.8373E-03    115.68  0.0000E+00      0.00
  176.00     24.00    -22.44  -999.99   -22.44      0.0000     -0.00 LINEAR  1.4194E-03    121.35  0.0000E+00      0.00
  180.00     24.00   -999.99  -999.99  -999.99      0.0000      0.00         2.0756E-13    -52.71  0.0000E+00      0.00
    0.00     28.00   -999.99  -999.99  -999.99      0.0000      0.00         0.0000E+00      0.00  0.0000E+00      0.00
    4.00     28.00    -22.16  -999.99   -22.16      0.0000     -0.00 LINEAR  1.4651E-03   -143.04  0.0000E+00      0.00
    8.00     28.00    -16.15  -999.99   -16.15      0.0000     -0.00 LINEAR  2.9280E-03   -149.46  0.0000E+00      0.00
   12.00     28.00    -12.64  -999.99   -12.64      0.0000     -0.00 LINEAR  4.3860E-03   -156.05  0.0000E+00      0.00
   16.00     28.00    -10.16  -999.99   -10.16      0.0000     -0.00 LINEAR  5.8363E-03   -162.78  0.0000E+00      0.00
   20.00     28.00     -8.24  -999.99    -8.24      0.0000     -0.00 LINEAR  7.2755E-03   -169.61  0.0000E+00      0.00
   24.00     28.00     -6.69  -999.99    -6.69      0.0000     -0.00 LINEAR  8.6996E-03   -176.52  0.0000E+00      0.00
   28.00     28.00     -5.39  -999.99    -5.39      0.0000     -0.00 LINEAR  1.0104E-02    176.54  0.0000E+00      0.00
   32.00     28.00     -4.28  -999.99    -4.28      0.0000     -0.00 LINEAR  1.1482E-02    169.59  0.0000E+00      0.00
   36.00     28.00     -3.32  -999.99    -3.32      0.0000     -0.00 LINEAR  1.2827E-02    162.66  0.0000E+00      0.00
   40.00     28.00     -2.48  -999.99    -2.48      0.0000     -0.00 LINEAR  1.4133E-02    155.80  0.0000E+00      0.00
   44.00     28.00     -1.74  -999.99    -1.74      0.0000     -0.00 LINEAR  1.5390E-02    149.03  0.0000E+00      0.00
   48.00     28.00     -1.08  -999.99    -1.08      0.0000     -0.00 LINEAR  1.6589E-02    142.38  0.0000E+00      0.00
   52.00     28.00     -0.51  -999.99    -0.51      0.0000     -0.00 LINEAR  1.7721E-02    135.89  0.0000E+00      0.00
   56.00     28.00     -0.01  -999.99    -0.01      0.0000     -0.00 LINEAR  1.8775E-02    129.59  0.0000E+00      0.00
   60.00     28.00      0.43  -999.99     0.43      0.0000     -0.00 LINEAR  1.9741E-02    123.51  0.0000E+00      0.00
   64.00     28.00      0.80  -999.99     0.80      0.0000     -0.00 LINEAR  2.0610E-02    117.68  0.0000E+00      0.00
   68.00     28.00      1.12  -999.99     1.12      0.0000     -0.00 LINEAR  2.1371E-02    112.12  0.0000E+00      0.00
   72.00     28.00      1.37  -999.99     1.37      0.0000     -0.00 LINEAR  2.2016E-02    106.87  0.0000E+00      0.00
   76.00     28.00      1.58  -999.99     1.58      0.0000     -0.00 LINEAR  2.2537E-02    101.95  0.0000E+00      0.00
   80.00     28.00      1.73  -999.99     1.73      0.0000     -0.00 LINEAR  2.2927E-02     97.38  0.0000E+00      0.00
   84.00     28.00      1.82  -999.99     1.82      0.0000     -0.00 LINEAR  2.3181E-02     93.19  0.0000E+00      0.00
   88.00     28.00      1.87  -999.99     1.87      0.0000      0.00 LINEAR  2.3297E-02     89.40  0.0000E+00      0.00
   92.00     28.00      1.86  -999.99     1.86      0.0000      0.00 LINEAR  2.3272E-02     86.03  0.0000E+00      0.00
   96.00     28.00      1.79  -999.99     1.79      0.0000      0.00 LINEAR  2.3107E-02     83.09  0.0000E+00      0.00
  100.00     28.00      1.68  -999.99     1.68      0.0000      0.00 LINEAR  2.2805E-02     80.60  0.0000E+00      0.00
  104.00     28.00      1.51  -999.99     1.51      0.0000      0.00 LINEAR  2.2370E-02     78.58  0.0000E+00      0.00
  108.00     28.00      1.29  -999.99     1.29      0.0000      0.00 LINEAR  2.1809E-02     77.03  0.0000E+00      0.00
  112.00     28.00      1.02  -999.99     1.02      0.0000      0.00 LINEAR  2.1127E-02     75.96  0.0000E+00      0.00
  116.00     28.00      0.68  -999.99     0.68      0.0000      0.00 LINEAR  2.0334E-02     75.38  0.0000E+00      0.00
  120.00     28.00      0.29  -999.99     0.29      0.0000      0.00 LINEAR  1.9439E-02     75.28  0.0000E+00      0.00
  124.00     28.00     -0.16  -999.99    -0.16      0.0000      0.00 LINEAR  1.8453E-02     75.68  0.0000E+00      0.00
  128.00     28.00     -0.68  -999.99    -0.68      0.0000      0.00 LINEAR  1.7386E-02     76.57  0.0000E+00      0.00
  132.00     28.00     -1.26  -999.99    -1.26      0.0000      0.00 LINEAR  1.6247E-02     77.94  0.0000E+00      0.00
  136.00     28.00     -1.93  -999.99    -1.93      0.0000      0.00 LINEAR  1.5048E-02     79.79  0.0000E+00      0.00
  140.00     28.00     -2.68  -999.99    -2.68      0.0000      0.00 LINEAR  1.3798E-02     82.10  0.0000E+00      0.00
  144.00     28.00     -3.54  -999.99    -3.54      0.0000      0.00 LINEAR  1.2506E-02     84.87  0.0000E+00      0.00
  148.00     28.00     -4.51  -999.99    -4.51      0.0000      0.00 LINEAR  1.1180E-02     88.08  0.0000E+00      0.00
  152.00     28.00     -5.63  -999.99    -5.63      0.0000     -0.00 LINEAR  9.8264E-03     91.72  0.0000E+00      0.00
  156.00     28.00     -6.94  -999.99    -6.94      0.0000     -0.00 LINEAR  8.4523E-03     95.76  0.0000E+00      0.00
  160.00     28.00     -8.50  -999.99    -8.50      0.0000     -0.00 LINEAR  7.0625E-03    100.19  0.0000E+00      0.00
  164.00     28.00    -10.42  -999.99   -10.42      0.0000     -0.00 LINEAR  5.6613E-03    104.98  0.0000E+00      0.00
  168.00     28.00    -12.91  -999.99   -12.91      0.0000     -0.00 LINEAR  4.2520E-03    110.12  0.0000E+00      0.00
  172.00     28.00    -16.42  -999.99   -16.42      0.0000     -0.00 LINEAR  2.8373E-03    115.56  0.0000E+00      0.00
  176.00     28.00    -22.44  -999.99   -22.44      0.0000     -0.00 LINEAR  1.4194E-03    121.30  0.0000E+00      0.00
  180.00     28.00   -999.99  -999.99  -999.99      0.0000      0.00         2.0756E-13    -52.71  0.0000E+00      0.00
    0.00     32.00   -999.99  -999.99  -999.99      0.0000      0.00         0.0000E+00      0.00  0.0000E+00      0.00
    4.00     32.00    -22.16  -999.99   -22.16      0.0000     -0.00 LINEAR  1.4651E-03   -143.06  0.0000E+00      0.00
    8.00     32.00    -16.15  -999.99   -16.15      0.0000     -0.00 LINEAR  2.9280E-03   -149.51  0.0000E+00      0.00
   12.00     32.00    -12.64  -999.99   -12.64      0.0000     -0.00 LINEAR  4.3860E-03   -156.13  0.0000E+00      0.00
   16.00     32.00    -10.16  -999.99   -10.16      0.0000     -0.00 LINEAR  5.8363E-03   -162.89  0.0000E+00      0.00
   20.00     32.00     -8.24  -999.99    -8.24      0.0000     -0.00 LINEAR  7.2755E-03   -169.74  0.0000E+00      0.00
   24.00     32.00     -6.69  -999.99    -6.69      0.0000     -0.00 LINEAR  8.6996E-03   -176.68  0.0000E+00      0.00
   28.00     32.00     -5.39  -999.99    -5.39      0.0000     -0.00 LINEAR  1.0104E-02    176.35  0.0000E+00      0.00
   32.00     32.00     -4.28  -999.99    -4.28      0.0000     -0.00 LINEAR  1.1482E-02    169.38  0.0000E+00      0.00
   36.00     32.00     -3.32  -999.99    -3.32      0.0000     -0.00 LINEAR  1.2827E-02    162.43  0.0000E+00      0.00
   40.00     32.00     -2.48  -999.99    -2.48      0.0000     -0.00 LINEAR  1.4133E-02    155.55  0.0000E+00      0.00
   44.00     32.00     -1.74  -999.99    -1.74      0.0000     -0.00 LINEAR  1.5390E-02    148.75  0.0000E+00      0.00
   48.00     32.00     -1.08  -999.99    -1.08      0.0000     -0.00 LINEAR  1.6589E-02    142.09  0.0000E+00      0.00
   52.00     32.00     -0.51  -999.99    -0.51      0.0000     -0.00 LINEAR  1.7721E-02    135.58  0.0000E+00      0.00
   56.00     32.00     -0.01  -999.99    -0.01      0.0000     -0.00 LINEAR  1.8775E-02    129.26  0.0000E+00      0.00
   60.00     32.00      0.43  -999.99     0.43      0.0000     -0.00 LINEAR  1.9741E-02    123.17  0.0000E+00      0.00
   64.00     32.00      0.80  -999.99     0.80      0.0000     -0.00 LINEAR  2.0610E-02    117.32  0.0000E+00      0.00
   68.00     32.00      1.12  -999.99     1.12      0.0000     -0.00 LINEAR  2.1371E-02    111.75  0.0000E+00      0.00
   72.00     32.00      1.37  -999.99     1.37      0.0000     -0.00 LINEAR  2.2016E-02    106.49  0.0000E+00      0.00
   76.00     32.00      1.58  -999.99     1.58      0.0000     -0.00 LINEAR  2.2537E-02    101.56  0.0000E+00      0.00
   80.00     32.00      1.73  -999.99     1.73      0.0000     -0.00 LINEAR  2.2927E-02     96.99  0.0000E+00      0.00
   84.00     32.00      1.82  -999.99     1.82      0.0000     -0.00 LINEAR  2.3181E-02     92.80  0.0000E+00      0.00
   88.00     32.00      1.87  -999.99     1.87      0.0000      0.00 LINEAR  2.3297E-02     89.01  0.0000E+00      0.00
   92.00     32.00      1.86  -999.99     1.86      0.0000      0.00 LINEAR  2.3272E-02     85.63  0.0000E+00      0.00
   96.00     32.00      1.79  -999.99     1.79      0.0000      0.00 LINEAR  2.3107E-02     82.70  0.0000E+00      0.00
  100.00     32.00      1.68  -999.99     1.68      0.0000      0.00 LINEAR  2.2805E-02     80.22  0.0000E+00      0.00
  104.00     32.00      1.51  -999.99     1.51      0.0000      0.00 LINEAR  2.2370E-02     78.20  0.0000E+00      0.00
  108.00     32.00      1.29  -999.99     1.29      0.0000      0.00 LINEAR  2.1809E-02     76.65  0.0000E+00      0.00
  112.00     32.00      1.02  -999.99     1.02      0.0000      0.00 LINEAR  2.1127E-02     75.59  0.0000E+00      0.00
  116.00     32.00      0.68  -999.99     0.68      0.0000      0.00 LINEAR  2.0334E-02     75.02  0.0000E+00      0.00
  120.00     32.00      0.29  -999.99     0.29      0.0000      0.00 LINEAR  1.9439E-02     74.94  0.0000E+00      0.00
  124.00     32.00     -0.16  -999.99    -0.16      0.0000      0.00 LINEAR  1.8453E-02     75.35  0.0000E+00      0.00
  128.00     32.00     -0.68  -999.99    -0.68      0.0000      0.00 LINEAR  1.7386E-02     76.26  0.0000E+00      0.00
  132.00     32.00     -1.26  -999.99    -1.26      0.0000      0.00 LINEAR  1.6247E-02     77.64  0.0000E+00      0.00
  136.00     32.00     -1.93  -999.99    -1.93      0.0000      0.00 LINEAR  1.5048E-02     79.51  0.0000E+00      0.00
  140.00     32.00     -2.68  -999.99    -2.68      0.0000      0.00 LINEAR  1.3798E-02     81.85  0.0000E+00      0.00
  144.00     32.00     -3.54  -999.99    -3.54      0.0000      0.00 LINEAR  1.2506E-02     84.64  0.0000E+00      0.00
  148.00     32.00     -4.51  -999.99    -4.51      0.0000      0.00 LINEAR  1.1180E-02     87.87  0.0000E+00      0.00
  152.00     32.00     -5.63  -999.99    -5.63      0.0000     -0.00 LINEAR  9.8264E-03     91.53  0.0000E+00      0.00
  156.00     32.00     -6.94  -999.99    -6.94      0.0000     -0.00 LINEAR  8.4523E-03     95.60  0.0000E+00      0.00
  160.00     32.00     -8.50  -999.99    -8.50      0.0000     -0.00 LINEAR  7.0625E-03    100.06  0.0000E+00      0.00
  164.00     32.00    -10.42  -999.99   -10.42      0.0000     -0.00 LINEAR  5.6613E-03    104.87  0.0000E+00      0.00
  168.00     32.00    -12.91  -999.99   -12.91      0.0000     -0.00 LINEAR  4.2520E-03    110.03  0.0000E+00      0.00
  172.00     32.00    -16.42  -999.99   -16.42      0.0000     -0.00 LINEAR  2.8373E-03    115.51  0.0000E+00      0.00
  176.00     32.00    -22.44  -999.99   -22.44      0.0000     -0.00 LINEAR  1.4194E-03    121.27  0.0000E+00      0.00
  180.00     32.00   -999.99  -999.99  -999.99      0.0000      0.00         2.0756E-13    -52.71  0.0000E+00      0.00
    0.00     36.00   -999.99  -999.99  -999.99      0.0000      0.00         0.0000E+00      0.00  0.0000E+00      0.00
    4.00     36.00    -22.16  -999.99   -22.16      0.0000     -0.00 LINEAR  1.4651E-03   -143.06  0.0000E+00      0.00
    8.00     36.00    -16.15  -999.99   -16.15      0.0000     -0.00 LINEAR  2.9280E-03   -149.51  0.0000E+00      0.00
   12.00     36.00    -12.64  -999.99   -12.64      0.0000     -0.00 LINEAR  4.3860E-03   -156.12  0.0000E+00      0.00
   16.00     36.00    -10.16  -999.99   -10.16      0.0000     -0.00 LINEAR  5.8363E-03   -162.88  0.0000E+00      0.00
   20.00     36.00     -8.24  -999.99    -8.24      0.0000     -0.00 LINEAR  7.2755E-03   -169.73  0.0000E+00      0.00
   24.00     36.00     -6.69  -999.99    -6.69      0.0000     -0.00 LINEAR  8.6996E-03   -176.66  0.0000E+00      0.00
   28.00     36.00     -5.39  -999.99    -5.39      0.0000     -0.00 LINEAR  1.0104E-02    176.37  0.0000E+00      0.00
   32.00     36.00     -4.28  -999.99    -4.28      0.0000     -0.00 LINEAR  1.1482E-02    169.40  0.0000E+00      0.00
   36.00     36.00     -3.32  -999.99    -3.32      0.0000     -0.00 LINEAR  1.2827E-02    162.45  0.0000E+00      0.00
   40.00     36.00     -2.48  -999.99    -2.48      0.0000     -0.00 LINEAR  1.4133E-02    155.57  0.0000E+00      0.00
   44.00     36.00     -1.74  -999.99    -1.74      0.0000     -0.00 LINEAR  1.5390E-02    148.78  0.0000E+00      0.00
   48.00     36.00     -1.08  -999.99    -1.08      0.0000     -0.00 LINEAR  1.6589E-02    142.11  0.0000E+00      0.00
   52.00     36.00     -0.51  -999.99    -0.51      0.0000     -0.00 LINEAR  1.7721E-02    135.61  0.0000E+00      0.00
   56.00     36.00     -0.01  -999.99    -0.01      0.0000     -0.00 LINEAR  1.8775E-02    129.29  0.0000E+00      0.00
   60.00     36.00      0.43  -999.99     0.43      0.0000     -0.00 LINEAR  1.9741E-02    123.20  0.0000E+00      0.00
   64.00     36.00      0.80  -999.99     0.80      0.0000     -0.00 LINEAR  2.0610E-02    117.35  0.0000E+00      0.00
   68.00     36.00      1.12  -999.99     1.12      0.0000     -0.00 LINEAR  2.1371E-02    111.78  0.0000E+00      0.00
   72.00     36.00      1.37  -999.99     1.37      0.0000     -0.00 LINEAR  2.2016E-02    106.52  0.0000E+00      0.00
   76.00     36.00      1.58  -999.99     1.58      0.0000     -0.00 LINEAR  2.2537E-02    101.60  0.0000E+00      0.00
   80.00     36.00      1.73  -999.99     1.73      0.0000     -0.00 LINEAR  2.2927E-02     97.02  0.0000E+00      0.00
   84.00     36.00      1.82  -999.99     1.82      0.0000     -0.00 LINEAR  2.3181E-02     92.83  0.0000E+00      0.00
   88.00     36.00      1.87  -999.99     1.87      0.0000      0.00 LINEAR  2.3297E-02     89.04  0.0000E+00      0.00
   92.00     36.00      1.86  -999.99     1.86      0.0000      0.00 LINEAR  2.3272E-02     85.67  0.0000E+00      0.00
   96.00     36.00      1.79  -999.99     1.79      0.0000      0.00 LINEAR  2.3107E-02     82.73  0.0000E+00      0.00
  100.00     36.00      1.68  -999.99     1.68      0.0000      0.00 LINEAR  2.2805E-02     80.25  0.0000E+00      0.00
  104.00     36.00      1.51  -999.99     1.51      0.0000      0.00 LINEAR  2.2370E-02     78.23  0.0000E+00      0.00
  108.00     36.00      1.29  -999.99     1.29      0.0000      0.00 LINEAR  2.1809E-02     76.69  0.0000E+00      0.00
  112.00     36.00      1.02  -999.99     1.02      0.0000      0.00 LINEAR  2.1127E-02     75.62  0.0000E+00      0.00
  116.00     36.00      0.68  -999.99     0.68      0.0000      0.00 LINEAR  2.0334E-02     75.05  0.0000E+00      0.00
  120.00     36.00      0.29  -999.99     0.29      0.0000      0.00 LINEAR  1.9439E-02     74.97  0.0000E+00      0.00
  124.00     36.00     -0.16  -999.99    -0.16      0.0000      0.00 LINEAR  1.8453E-02     75.38  0.0000E+00      0.00
  128.00     36.00     -0.68  -999.99    -0.68      0.0000      0.00 LINEAR  1.7386E-02     76.28  0.0000E+00      0.00
  132.00     36.00     -1.26  -999.99    -1.26      0.0000      0.00 LINEAR  1.6247E-02     77.67  0.0000E+00      0.00
  136.00     36.00     -1.93  -999.99    -1.93      0.0000      0.00 LINEAR  1.5048E-02     79.53  0.0000E+00      0.00
  140.00     36.00     -2.68  -999.99    -2.68      0.0000      0.00 LINEAR  1.3798E-02     81.87  0.0000E+00      0.00
  144.00     36.00     -3.54  -999.99    -3.54      0.0000      0.00 LINEAR  1.2506E-02     84.66  0.0000E+00      0.00
  148.00     36.00     -4.51  -999.99    -4.51      0.0000      0.00 LINEAR  1.1180E-02     87.89  0.0000E+00      0.00
  152.00     36.00     -5.63  -999.99    -5.63      0.0000     -0.00 LINEAR  9.8264E-03     91.55  0.0000E+00      0.00
  156.00     36.00     -6.94  -999.99    -6.94      0.0000     -0.00 LINEAR  8.4523E-03     95.61  0.0000E+00      0.00
  160.00     36.00     -8.50  -999.99    -8.50      0.0000     -0.00 LINEAR  7.0625E-03    100.07  0.0000E+00      0.00
  164.00     36.00    -10.42  -999.99   -10.42      0.0000     -0.00 LINEAR  5.6613E-03    104.88  0.0000E+00      0.00
  168.00     36.00    -12.91  -999.99   -12.91      0.0000     -0.00 LINEAR  4.2520E-03    110.04  0.0000E+00      0.00
  172.00     36.00    -16.42  -999.99   -16.42      0.0000     -0.00 LINEAR  2.8373E-03    115.51  0.0000E+00      0.00
  176.00     36.00    -22.44  -999.99   -22.44      0.0000     -0.00 LINEAR  1.4194E-03    121.27  0.0000E+00      0.00
  180.00     36.00   -999.99  -999.99  -999.99      0.0000      0.00         2.0756E-13    -52.71  0.0000E+00      0.00
    0.00     40.00   -999.99  -999.99  -999.99      0.0000      0.00         0.0000E+00      0.00  0.0000E+00      0.00
    4.00     40.00    -22.16  -999.99   -22.16      0.0000     -0.00 LINEAR  1.4651E-03   -143.03  0.0000E+00      0.00
    8.00     40.00    -16.15  -999.99   -16.15      0.0000     -0.00 LINEAR  2.9280E-03   -149.44  0.0000E+00      0.00
   12.00     40.00    -12.64  -999.99   -12.64      0.0000     -0.00 LINEAR  4.3860E-03   -156.03  0.0000E+00      0.00
   16.00     40.00    -10.16  -999.99   -10.16      0.0000     -0.00 LINEAR  5.8363E-03   -162.75  0.0000E+00      0.00
   20.00     40.00     -8.24  -999.99    -8.24      0.0000     -0.00 LINEAR  7.2755E-03   -169.58  0.0000E+00      0.00
   24.00     40.00     -6.69  -999.99    -6.69      0.0000     -0.00 LINEAR  8.6996E-03   -176.47  0.0000E+00      0.00
   28.00     40.00     -5.39  -999.99    -5.39      0.0000     -0.00 LINEAR  1.0104E-02    176.59  0.0000E+00      0.00
   32.00     40.00     -4.28  -999.99    -4.28      0.0000     -0.00 LINEAR  1.1482E-02    169.64  0.0000E+00      0.00
   36.00     40.00     -3.32  -999.99    -3.32      0.0000     -0.00 LINEAR  1.2827E-02    162.72  0.0000E+00      0.00
   40.00     40.00     -2.48  -999.99    -2.48      0.0000     -0.00 LINEAR  1.4133E-02    155.86  0.0000E+00      0.00
   44.00     40.00     -1.74  -999.99    -1.74      0.0000     -0.00 LINEAR  1.5390E-02    149.10  0.0000E+00      0.00
   48.00     40.00     -1.08  -999.99    -1.08      0.0000     -0.00 LINEAR  1.6589E-02    142.46  0.0000E+00      0.00
   52.00     40.00     -0.51  -999.99    -0.51      0.0000     -0.00 LINEAR  1.7721E-02    135.97  0.0000E+00      0.00
   56.00     40.00     -0.01  -999.99    -0.01      0.0000     -0.00 LINEAR  1.8775E-02    129.67  0.0000E+00      0.00
   60.00     40.00      0.43  -999.99     0.43      0.0000     -0.00 LINEAR  1.9741E-02    123.60  0.0000E+00      0.00
   64.00     40.00      0.80  -999.99     0.80      0.0000     -0.00 LINEAR  2.0610E-02    117.77  0.0000E+00      0.00
   68.00     40.00      1.12  -999.99     1.12      0.0000     -0.00 LINEAR  2.1371E-02    112.21  0.0000E+00      0.00
   72.00     40.00      1.37  -999.99     1.37      0.0000     -0.00 LINEAR  2.2016E-02    106.96  0.0000E+00      0.00
   76.00     40.00      1.58  -999.99     1.58      0.0000     -0.00 LINEAR  2.2537E-02    102.04  0.0000E+00      0.00
   80.00     40.00      1.73  -999.99     1.73      0.0000     -0.00 LINEAR  2.2927E-02     97.48  0.0000E+00      0.00
   84.00     40.00      1.82  -999.99     1.82      0.0000     -0.00 LINEAR  2.3181E-02     93.29  0.0000E+00      0.00
   88.00     40.00      1.87  -999.99     1.87      0.0000      0.00 LINEAR  2.3297E-02     89.50  0.0000E+00      0.00
   92.00     40.00      1.86  -999.99     1.86      0.0000      0.00 LINEAR  2.3272E-02     86.13  0.0000E+00      0.00
   96.00     40.00      1.79  -999.99     1.79      0.0000      0.00 LINEAR  2.3107E-02     83.19  0.0000E+00      0.00
  100.00     40.00      1.68  -999.99     1.68      0.0000      0.00 LINEAR  2.2805E-02     80.70  0.0000E+00      0.00
  104.00     40.00      1.51  -999.99     1.51      0.0000      0.00 LINEAR  2.2370E-02     78.68  0.0000E+00      0.00
  108.00     40.00      1.29  -999.99     1.29      0.0000      0.00 LINEAR  2.1809E-02     77.12  0.0000E+00      0.00
  112.00     40.00      1.02  -999.99     1.02      0.0000      0.00 LINEAR  2.1127E-02     76.05  0.0000E+00      0.00
  116.00     40.00      0.68  -999.99     0.68      0.0000      0.00 LINEAR  2.0334E-02     75.47  0.0000E+00      0.00
  120.00     40.00      0.29  -999.99     0.29      0.0000      0.00 LINEAR  1.9439E-02     75.37  0.0000E+00      0.00
  124.00     40.00     -0.16  -999.99    -0.16      0.0000      0.00 LINEAR  1.8453E-02     75.76  0.0000E+00      0.00
  128.00     40.00     -0.68  -999.99    -0.68      0.0000      0.00 LINEAR  1.7386E-02     76.65  0.0000E+00      0.00
  132.00     40.00     -1.26  -999.99    -1.26      0.0000      0.00 LINEAR  1.6247E-02     78.01  0.0000E+00      0.00
  136.00     40.00     -1.93  -999.99    -1.93      0.0000      0.00 LINEAR  1.5048E-02     79.85  0.0000E+00      0.00
  140.00     40.00     -2.68  -999.99    -2.68      0.0000      0.00 LINEAR  1.3798E-02     82.16  0.0000E+00      0.00
  144.00     40.00     -3.54  -999.99    -3.54      0.0000      0.00 LINEAR  1.2506E-02     84.93  0.0000E+00      0.00
  148.00     40.00     -4.51  -999.99    -4.51      0.0000      0.00 LINEAR  1.1180E-02     88.14  0.0000E+00      0.00
  152.00     40.00     -5.63  -999.99    -5.63      0.0000     -0.00 LINEAR  9.8264E-03     91.77  0.0000E+00      0.00
  156.00     40.00     -6.94  -999.99    -6.94      0.0000     -0.00 LINEAR  8.4523E-03     95.80  0.0000E+00      0.00
  160.00     40.00     -8.50  -999.99    -8.50      0.0000     -0.00 LINEAR  7.0625E-03    100.23  0.0000E+00      0.00
  164.00     40.00    -10.42  -999.99   -10.42      0.0000     -0.00 LINEAR  5.6613E-03    105.01  0.0000E+00      0.00
  168.00     40.00    -12.91  -999.99   -12.91      0.0000     -0.00 LINEAR  4.2520E-03    110.14  0.0000E+00      0.00
  172.00     40.00    -16.42  -999.99   -16.42      0.0000     -0.00 LINEAR  2.8373E-03    115.58  0.0000E+00      0.00
  176.00     40.00    -22.44  -999.99   -22.44      0.0000     -0.00 LINEAR  1.4194E-03    121.30  0.0000E+00      0.00
  180.00     40.00   -999.99  -999.99  -999.99      0.0000      0.00         2.0756E-13    -52.71  0.0000E+00      0.00
    0.00     44.00   -999.99  -999.99  -999.99      0.0000      0.00         0.0000E+00      0.00  0.0000E+00      0.00
    4.00     44.00    -22.16  -999.99   -22.16      0.0000     -0.00 LINEAR  1.4651E-03   -142.97  0.0000E+00      0.00
    8.00     44.00    -16.15  -999.99   -16.15      0.0000     -0.00 LINEAR  2.9280E-03   -149.32  0.0000E+00      0.00
   12.00     44.00    -12.64  -999.99   -12.64      0.0000     -0.00 LINEAR  4.3860E-03   -155.84  0.0000E+00      0.00
   16.00     44.00    -10.16  -999.99   -10.16      0.0000     -0.00 LINEAR  5.8363E-03   -162.50  0.0000E+00      0.00
   20.00     44.00     -8.24  -999.99    -8.24      0.0000     -0.00 LINEAR  7.2755E-03   -169.27  0.0000E+00      0.00
   24.00     44.00     -6.69  -999.99    -6.69      0.0000     -0.00 LINEAR  8.6996E-03   -176.11  0.0000E+00      0.00
   28.00     44.00     -5.39  -999.99    -5.39      0.0000     -0.00 LINEAR  1.0104E-02    177.00  0.0000E+00      0.00
   32.00     44.00     -4.28  -999.99    -4.28      0.0000     -0.00 LINEAR  1.1482E-02    170.11  0.0000E+00      0.00
   36.00     44.00     -3.32  -999.99    -3.32      0.0000     -0.00 LINEAR  1.2827E-02    163.24  0.0000E+00      0.00
   40.00     44.00     -2.48  -999.99    -2.48      0.0000     -0.00 LINEAR  1.4133E-02    156.43  0.0000E+00      0.00
   44.00     44.00     -1.74  -999.99    -1.74      0.0000     -0.00 LINEAR  1.5390E-02    149.71  0.0000E+00      0.00
   48.00     44.00     -1.08  -999.99    -1.08      0.0000     -0.00 LINEAR  1.6589E-02    143.12  0.0000E+00      0.00
   52.00     44.00     -0.51  -999.99    -0.51      0.0000     -0.00 LINEAR  1.7721E-02    136.67  0.0000E+00      0.00
   56.00     44.00     -0.01  -999.99    -0.01      0.0000     -0.00 LINEAR  1.8775E-02    130.41  0.0000E+00      0.00
   60.00     44.00      0.43  -999.99     0.43      0.0000     -0.00 LINEAR  1.9741E-02    124.36  0.0000E+00      0.00
   64.00     44.00      0.80  -999.99     0.80      0.0000     -0.00 LINEAR  2.0610E-02    118.56  0.0000E+00      0.00
   68.00     44.00      1.12  -999.99     1.12      0.0000     -0.00 LINEAR  2.1371E-02    113.04  0.0000E+00      0.00
   72.00     44.00      1.37  -999.99     1.37      0.0000     -0.00 LINEAR  2.2016E-02    107.81  0.0000E+00      0.00
   76.00     44.00      1.58  -999.99     1.58      0.0000     -0.00 LINEAR  2.2537E-02    102.90  0.0000E+00      0.00
   80.00     44.00      1.73  -999.99     1.73      0.0000     -0.00 LINEAR  2.2927E-02     98.35  0.0000E+00      0.00
   84.00     44.00      1.82  -999.99     1.82      0.0000     -0.00 LINEAR  2.3181E-02     94.17  0.0000E+00      0.00
   88.00     44.00      1.87  -999.99     1.87      0.0000     -0.00 LINEAR  2.3297E-02     90.39  0.0000E+00      0.00
   92.00     44.00      1.86  -999.99     1.86      0.0000      0.00 LINEAR  2.3272E-02     87.02  0.0000E+00      0.00
   96.00     44.00      1.79  -999.99     1.79      0.0000      0.00 LINEAR  2.3107E-02     84.07  0.0000E+00      0.00
  100.00     44.00      1.68  -999.99     1.68      0.0000      0.00 LINEAR  2.2805E-02     81.58  0.0000E+00      0.00
  104.00     44.00      1.51  -999.99     1.51      0.0000      0.00 LINEAR  2.2370E-02     79.54  0.0000E+00      0.00
  108.00     44.00      1.29  -999.99     1.29      0.0000      0.00 LINEAR  2.1809E-02     77.97  0.0000E+00      0.00
  112.00     44.00      1.02  -999.99     1.02      0.0000      0.00 LINEAR  2.1127E-02     76.88  0.0000E+00      0.00
  116.00     44.00      0.68  -999.99     0.68      0.0000      0.00 LINEAR  2.0334E-02     76.26  0.0000E+00      0.00
  120.00     44.00      0.29  -999.99     0.29      0.0000      0.00 LINEAR  1.9439E-02     76.14  0.0000E+00      0.00
  124.00     44.00     -0.16  -999.99    -0.16      0.0000      0.00 LINEAR  1.8453E-02     76.50  0.0000E+00      0.00
  128.00     44.00     -0.68  -999.99    -0.68      0.0000      0.00 LINEAR  1.7386E-02     77.35  0.0000E+00      0.00
  132.00     44.00     -1.26  -999.99    -1.26      0.0000      0.00 LINEAR  1.6247E-02     78.67  0.0000E+00      0.00
  136.00     44.00     -1.93  -999.99    -1.93      0.0000      0.00 LINEAR  1.5048E-02     80.47  0.0000E+00      0.00
  140.00     44.00     -2.68  -999.99    -2.68      0.0000      0.00 LINEAR  1.3798E-02     82.73  0.0000E+00      0.00
  144.00     44.00     -3.54  -999.99    -3.54      0.0000      0.00 LINEAR  1.2506E-02     85.45  0.0000E+00      0.00
  148.00     44.00     -4.51  -999.99    -4.51      0.0000      0.00 LINEAR  1.1180E-02     88.61  0.0000E+00      0.00
  152.00     44.00     -5.63  -999.99    -5.63      0.0000     -0.00 LINEAR  9.8264E-03     92.18  0.0000E+00      0.00
  156.00     44.00     -6.94  -999.99    -6.94      0.0000     -0.00 LINEAR  8.4523E-03     96.16  0.0000E+00      0.00
  160.00     44.00     -8.50  -999.99    -8.50      0.0000     -0.00 LINEAR  7.0625E-03    100.53  0.0000E+00      0.00
  164.00     44.00    -10.42  -999.99   -10.42      0.0000     -0.00 LINEAR  5.6613E-03    105.26  0.0000E+00      0.00
  168.00     44.00    -12.91  -999.99   -12.91      0.0000     -0.00 LINEAR  4.2520E-03    110.32  0.0000E+00      0.00
  172.00     44.00    -16.42  -999.99   -16.42      0.0000     -0.00 LINEAR  2.8373E-03    115.70  0.0000E+00      0.00
  176.00     44.00    -22.44  -999.99   -22.44      0.0000     -0.00 LINEAR  1.4194E-03    121.36  0.0000E+00      0.00
  180.00     44.00   -999.99  -999.99  -999.99      0.0000      0.00         2.0756E-13    -52.71  0.0000E+00      0.00
    0.00     48.00   -999.99  -999.99  -999.99      0.0000      0.00         0.0000E+00      0.00  0.0000E+00      0.00
    4.00     48.00    -22.16  -999.99   -22.16      0.0000     -0.00 LINEAR  1.4651E-03   -142.88  0.0000E+00      0.00
    8.00     48.00    -16.15  -999.99   -16.15      0.0000     -0.00 LINEAR  2.9280E-03   -149.14  0.0000E+00      0.00
   12.00     48.00    -12.64  -999.99   -12.64      0.0000     -0.00 LINEAR  4.3860E-03   -155.57  0.0000E+00      0.00
   16.00     48.00    -10.16  -999.99   -10.16      0.0000     -0.00 LINEAR  5.8363E-03   -162.14  0.0000E+00      0.00
   20.00     48.00     -8.24  -999.99    -8.24      0.0000     -0.00 LINEAR  7.2755E-03   -168.82  0.0000E+00      0.00
   24.00     48.00     -6.69  -999.99    -6.69      0.0000     -0.00 LINEAR  8.6996E-03   -175.58  0.0000E+00      0.00
   28.00     48.00     -5.39  -999.99    -5.39      0.0000     -0.00 LINEAR  1.0104E-02    177.62  0.0000E+00      0.00
   32.00     48.00     -4.28  -999.99    -4.28      0.0000     -0.00 LINEAR  1.1482E-02    170.81  0.0000E+00      0.00
   36.00     48.00     -3.32  -999.99    -3.32      0.0000     -0.00 LINEAR  1.2827E-02    164.01  0.0000E+00      0.00
   40.00     48.00     -2.48  -999.99    -2.48      0.0000     -0.00 LINEAR  1.4133E-02    157.28  0.0000E+00      0.00
   44.00     48.00     -1.74  -999.99    -1.74      0.0000     -0.00 LINEAR  1.5390E-02    150.62  0.0000E+00      0.00
   48.00     48.00     -1.08  -999.99    -1.08      0.0000     -0.00 LINEAR  1.6589E-02    144.09  0.0000E+00      0.00
   52.00     48.00     -0.51  -999.99    -0.51      0.0000     -0.00 LINEAR  1.7721E-02    137.70  0.0000E+00      0.00
   56.00     48.00     -0.01  -999.99    -0.01      0.0000     -0.00 LINEAR  1.8775E-02    131.50  0.0000E+00      0.00
   60.00     48.00      0.43  -999.99     0.43      0.0000     -0.00 LINEAR  1.9741E-02    125.50  0.0000E+00      0.00
   64.00     48.00      0.80  -999.99     0.80      0.0000     -0.00 LINEAR  2.0610E-02    119.74  0.0000E+00      0.00
   68.00     48.00      1.12  -999.99     1.12      0.0000     -0.00 LINEAR  2.1371E-02    114.25  0.0000E+00      0.00
   72.00     48.00      1.37  -999.99     1.37      0.0000     -0.00 LINEAR  2.2016E-02    109.05  0.0000E+00      0.00
   76.00     48.00      1.58  -999.99     1.58      0.0000     -0.00 LINEAR  2.2537E-02    104.17  0.0000E+00      0.00
   80.00     48.00      1.73  -999.99     1.73      0.0000     -0.00 LINEAR  2.2927E-02     99.64  0.0000E+00      0.00
   84.00     48.00      1.82  -999.99     1.82      0.0000     -0.00 LINEAR  2.3181E-02     95.47  0.0000E+00      0.00
   88.00     48.00      1.87  -999.99     1.87      0.0000     -0.00 LINEAR  2.3297E-02     91.70  0.0000E+00      0.00
   92.00     48.00      1.86  -999.99     1.86      0.0000      0.00 LINEAR  2.3272E-02     88.32  0.0000E+00      0.00
   96.00     48.00      1.79  -999.99     1.79      0.0000      0.00 LINEAR  2.3107E-02     85.38  0.0000E+00      0.00
  100.00     48.00      1.68  -999.99     1.68      0.0000      0.00 LINEAR  2.2805E-02     82.87  0.0000E+00      0.00
  104.00     48.00      1.51  -999.99     1.51      0.0000      0.00 LINEAR  2.2370E-02     80.81  0.0000E+00      0.00
  108.00     48.00      1.29  -999.99     1.29      0.0000      0.00 LINEAR  2.1809E-02     79.21  0.0000E+00      0.00
  112.00     48.00      1.02  -999.99     1.02      0.0000      0.00 LINEAR  2.1127E-02     78.09  0.0000E+00      0.00
  116.00     48.00      0.68  -999.99     0.68      0.0000      0.00 LINEAR  2.0334E-02     77.44  0.0000E+00      0.00
  120.00     48.00      0.29  -999.99     0.29      0.0000      0.00 LINEAR  1.9439E-02     77.27  0.0000E+00      0.00
  124.00     48.00     -0.16  -999.99    -0.16      0.0000      0.00 LINEAR  1.8453E-02     77.59  0.0000E+00      0.00
  128.00     48.00     -0.68  -999.99    -0.68      0.0000      0.00 LINEAR  1.7386E-02     78.38  0.0000E+00      0.00
  132.00     48.00     -1.26  -999.99    -1.26      0.0000      0.00 LINEAR  1.6247E-02     79.65  0.0000E+00      0.00
  136.00     48.00     -1.93  -999.99    -1.93      0.0000      0.00 LINEAR  1.5048E-02     81.38  0.0000E+00      0.00
  140.00     48.00     -2.68  -999.99    -2.68      0.0000      0.00 LINEAR  1.3798E-02     83.58  0.0000E+00      0.00
  144.00     48.00     -3.54  -999.99    -3.54      0.0000      0.00 LINEAR  1.2506E-02     86.22  0.0000E+00      0.00
  148.00     48.00     -4.51  -999.99    -4.51      0.0000      0.00 LINEAR  1.1180E-02     89.30  0.0000E+00      0.00
  152.00     48.00     -5.63  -999.99    -5.63      0.0000     -0.00 LINEAR  9.8264E-03     92.80  0.0000E+00      0.00
  156.00     48.00     -6.94  -999.99    -6.94      0.0000     -0.00 LINEAR  8.4523E-03     96.70  0.0000E+00      0.00
  160.00     48.00     -8.50  -999.99    -8.50      0.0000     -0.00 LINEAR  7.0625E-03    100.98  0.0000E+00      0.00
  164.00     48.00    -10.42  -999.99   -10.42      0.0000     -0.00 LINEAR  5.6613E-03    105.62  0.0000E+00      0.00
  168.00     48.00    -12.91  -999.99   -12.91      0.0000     -0.00 LINEAR  4.2520E-03    110.59  0.0000E+00      0.00
  172.00     48.00    -16.42  -999.99   -16.42      0.0000     -0.00 LINEAR  2.8373E-03    115.88  0.0000E+00      0.00
  176.00     48.00    -22.44  -999.99   -22.44      0.0000     -0.00 LINEAR  1.4194E-03    121.46  0.0000E+00      0.00
  180.00     48.00   -999.99  -999.99  -999.99      0.0000      0.00         2.0756E-13    -52.71  0.0000E+00      0.00
    0.00     52.00   -999.99  -999.99  -999.99      0.0000      0.00         0.0000E+00      0.00  0.0000E+00      0.00
    4.00     52.00    -22.16  -999.99   -22.16      0.0000     -0.00 LINEAR  1.4651E-03   -142.76  0.0000E+00      0.00
    8.00     52.00    -16.15  -999.99   -16.15      0.0000     -0.00 LINEAR  2.9280E-03   -148.90  0.0000E+00      0.00
   12.00     52.00    -12.64  -999.99   -12.64      0.0000     -0.00 LINEAR  4.3860E-03   -155.21  0.0000E+00      0.00
   16.00     52.00    -10.16  -999.99   -10.16      0.0000     -0.00 LINEAR  5.8363E-03   -161.67  0.0000E+00      0.00
   20.00     52.00     -8.24  -999.99    -8.24      0.0000     -0.00 LINEAR  7.2755E-03   -168.23  0.0000E+00      0.00
   24.00     52.00     -6.69  -999.99    -6.69      0.0000     -0.00 LINEAR  8.6996E-03   -174.88  0.0000E+00      0.00
   28.00     52.00     -5.39  -999.99    -5.39      0.0000     -0.00 LINEAR  1.0104E-02    178.43  0.0000E+00      0.00
   32.00     52.00     -4.28  -999.99    -4.28      0.0000     -0.00 LINEAR  1.1482E-02    171.72  0.0000E+00      0.00
   36.00     52.00     -3.32  -999.99    -3.32      0.0000     -0.00 LINEAR  1.2827E-02    165.03  0.0000E+00      0.00
   40.00     52.00     -2.48  -999.99    -2.48      0.0000     -0.00 LINEAR  1.4133E-02    158.39  0.0000E+00      0.00
   44.00     52.00     -1.74  -999.99    -1.74      0.0000     -0.00 LINEAR  1.5390E-02    151.82  0.0000E+00      0.00
   48.00     52.00     -1.08  -999.99    -1.08      0.0000     -0.00 LINEAR  1.6589E-02    145.37  0.0000E+00      0.00
   52.00     52.00     -0.51  -999.99    -0.51      0.0000     -0.00 LINEAR  1.7721E-02    139.06  0.0000E+00      0.00
   56.00     52.00     -0.01  -999.99    -0.01      0.0000     -0.00 LINEAR  1.8775E-02    132.93  0.0000E+00      0.00
   60.00     52.00      0.43  -999.99     0.43      0.0000     -0.00 LINEAR  1.9741E-02    126.99  0.0000E+00      0.00
   64.00     52.00      0.80  -999.99     0.80      0.0000     -0.00 LINEAR  2.0610E-02    121.29  0.0000E+00      0.00
   68.00     52.00      1.12  -999.99     1.12      0.0000     -0.00 LINEAR  2.1371E-02    115.85  0.0000E+00      0.00
   72.00     52.00      1.37  -999.99     1.37      0.0000     -0.00 LINEAR  2.2016E-02    110.69  0.0000E+00      0.00
[...]
   76.00    344.00      1.58  -999.99     1.58      0.0000     -0.00 LINEAR  2.2537E-02    131.67  0.0000E+00      0.00
   80.00    344.00      1.73  -999.99     1.73      0.0000     -0.00 LINEAR  2.2927E-02    127.54  0.0000E+00      0.00
   84.00    344.00      1.82  -999.99     1.82      0.0000     -0.00 LINEAR  2.3181E-02    123.65  0.0000E+00      0.00
   88.00    344.00      1.87  -999.99     1.87      0.0000     -0.00 LINEAR  2.3297E-02    120.01  0.0000E+00      0.00
   92.00    344.00      1.86  -999.99     1.86      0.0000     -0.00 LINEAR  2.3272E-02    116.64  0.0000E+00      0.00
   96.00    344.00      1.79  -999.99     1.79      0.0000     -0.00 LINEAR  2.3107E-02    113.55  0.0000E+00      0.00
  100.00    344.00      1.68  -999.99     1.68      0.0000     -0.00 LINEAR  2.2805E-02    110.77  0.0000E+00      0.00
  104.00    344.00      1.51  -999.99     1.51      0.0000     -0.00 LINEAR  2.2370E-02    108.30  0.0000E+00      0.00
  108.00    344.00      1.29  -999.99     1.29      0.0000     -0.00 LINEAR  2.1809E-02    106.16  0.0000E+00      0.00
  112.00    344.00      1.02  -999.99     1.02      0.0000     -0.00 LINEAR  2.1127E-02    104.36  0.0000E+00      0.00
  116.00    344.00      0.68  -999.99     0.68      0.0000     -0.00 LINEAR  2.0334E-02    102.91  0.0000E+00      0.00
  120.00    344.00      0.29  -999.99     0.29      0.0000     -0.00 LINEAR  1.9439E-02    101.81  0.0000E+00      0.00
  124.00    344.00     -0.16  -999.99    -0.16      0.0000     -0.00 LINEAR  1.8453E-02    101.08  0.0000E+00      0.00
  128.00    344.00     -0.68  -999.99    -0.68      0.0000     -0.00 LINEAR  1.7386E-02    100.70  0.0000E+00      0.00
  132.00    344.00     -1.26  -999.99    -1.26      0.0000     -0.00 LINEAR  1.6247E-02    100.70  0.0000E+00      0.00
  136.00    344.00     -1.93  -999.99    -1.93      0.0000     -0.00 LINEAR  1.5048E-02    101.06  0.0000E+00      0.00
  140.00    344.00     -2.68  -999.99    -2.68      0.0000     -0.00 LINEAR  1.3798E-02    101.79  0.0000E+00      0.00
  144.00    344.00     -3.54  -999.99    -3.54      0.0000     -0.00 LINEAR  1.2506E-02    102.87  0.0000E+00      0.00
  148.00    344.00     -4.51  -999.99    -4.51      0.0000     -0.00 LINEAR  1.1180E-02    104.31  0.0000E+00      0.00
  152.00    344.00     -5.63  -999.99    -5.63      0.0000     -0.00 LINEAR  9.8264E-03    106.10  0.0000E+00      0.00
  156.00    344.00     -6.94  -999.99    -6.94      0.0000     -0.00 LINEAR  8.4523E-03    108.22  0.0000E+00      0.00
  160.00    344.00     -8.50  -999.99    -8.50      0.0000     -0.00 LINEAR  7.0625E-03    110.67  0.0000E+00      0.00
  164.00    344.00    -10.42  -999.99   -10.42      0.0000     -0.00 LINEAR  5.6613E-03    113.43  0.0000E+00      0.00
  168.00    344.00    -12.91  -999.99   -12.91      0.0000     -0.00 LINEAR  4.2520E-03    116.48  0.0000E+00      0.00
  172.00    344.00    -16.42  -999.99   -16.42      0.0000     -0.00 LINEAR  2.8373E-03    119.82  0.0000E+00      0.00
  176.00    344.00    -22.44  -999.99   -22.44      0.0000     -0.00 LINEAR  1.4194E-03    123.43  0.0000E+00      0.00
  180.00    344.00   -999.99  -999.99  -999.99      0.0000      0.00         2.0756E-13    -52.71  0.0000E+00      0.00
    0.00    348.00   -999.99  -999.99  -999.99      0.0000      0.00         0.0000E+00      0.00  0.0000E+00      0.00
    4.00    348.00    -22.16  -999.99   -22.16      0.0000     -0.00 LINEAR  1.4651E-03   -141.22  0.0000E+00      0.00
    8.00    348.00    -16.15  -999.99   -16.15      0.0000     -0.00 LINEAR  2.9280E-03   -145.83  0.0000E+00      0.00
   12.00    348.00    -12.64  -999.99   -12.64      0.0000     -0.00 LINEAR  4.3860E-03   -150.62  0.0000E+00      0.00
   16.00    348.00    -10.16  -999.99   -10.16      0.0000     -0.00 LINEAR  5.8363E-03   -155.59  0.0000E+00      0.00
   20.00    348.00     -8.24  -999.99    -8.24      0.0000     -0.00 LINEAR  7.2755E-03   -160.69  0.0000E+00      0.00
   24.00    348.00     -6.69  -999.99    -6.69      0.0000     -0.00 LINEAR  8.6996E-03   -165.90  0.0000E+00      0.00
   28.00    348.00     -5.39  -999.99    -5.39      0.0000     -0.00 LINEAR  1.0104E-02   -171.21  0.0000E+00      0.00
   32.00    348.00     -4.28  -999.99    -4.28      0.0000     -0.00 LINEAR  1.1482E-02   -176.59  0.0000E+00      0.00
   36.00    348.00     -3.32  -999.99    -3.32      0.0000     -0.00 LINEAR  1.2827E-02    178.00  0.0000E+00      0.00
   40.00    348.00     -2.48  -999.99    -2.48      0.0000     -0.00 LINEAR  1.4133E-02    172.57  0.0000E+00      0.00
   44.00    348.00     -1.74  -999.99    -1.74      0.0000     -0.00 LINEAR  1.5390E-02    167.15  0.0000E+00      0.00
   48.00    348.00     -1.08  -999.99    -1.08      0.0000     -0.00 LINEAR  1.6589E-02    161.77  0.0000E+00      0.00
   52.00    348.00     -0.51  -999.99    -0.51      0.0000     -0.00 LINEAR  1.7721E-02    156.45  0.0000E+00      0.00
   56.00    348.00     -0.01  -999.99    -0.01      0.0000     -0.00 LINEAR  1.8775E-02    151.22  0.0000E+00      0.00
   60.00    348.00      0.43  -999.99     0.43      0.0000     -0.00 LINEAR  1.9741E-02    146.10  0.0000E+00      0.00
   64.00    348.00      0.80  -999.99     0.80      0.0000     -0.00 LINEAR  2.0610E-02    141.12  0.0000E+00      0.00
   68.00    348.00      1.12  -999.99     1.12      0.0000     -0.00 LINEAR  2.1371E-02    136.31  0.0000E+00      0.00
   72.00    348.00      1.37  -999.99     1.37      0.0000     -0.00 LINEAR  2.2016E-02    131.68  0.0000E+00      0.00
   76.00    348.00      1.58  -999.99     1.58      0.0000     -0.00 LINEAR  2.2537E-02    127.26  0.0000E+00      0.00
   80.00    348.00      1.73  -999.99     1.73      0.0000     -0.00 LINEAR  2.2927E-02    123.07  0.0000E+00      0.00
   84.00    348.00      1.82  -999.99     1.82      0.0000     -0.00 LINEAR  2.3181E-02    119.14  0.0000E+00      0.00
   88.00    348.00      1.87  -999.99     1.87      0.0000     -0.00 LINEAR  2.3297E-02    115.47  0.0000E+00      0.00
   92.00    348.00      1.86  -999.99     1.86      0.0000     -0.00 LINEAR  2.3272E-02    112.10  0.0000E+00      0.00
   96.00    348.00      1.79  -999.99     1.79      0.0000     -0.00 LINEAR  2.3107E-02    109.04  0.0000E+00      0.00
  100.00    348.00      1.68  -999.99     1.68      0.0000     -0.00 LINEAR  2.2805E-02    106.30  0.0000E+00      0.00
  104.00    348.00      1.51  -999.99     1.51      0.0000     -0.00 LINEAR  2.2370E-02    103.89  0.0000E+00      0.00
  108.00    348.00      1.29  -999.99     1.29      0.0000     -0.00 LINEAR  2.1809E-02    101.84  0.0000E+00      0.00
  112.00    348.00      1.02  -999.99     1.02      0.0000     -0.00 LINEAR  2.1127E-02    100.15  0.0000E+00      0.00
  116.00    348.00      0.68  -999.99     0.68      0.0000     -0.00 LINEAR  2.0334E-02     98.83  0.0000E+00      0.00
  120.00    348.00      0.29  -999.99     0.29      0.0000     -0.00 LINEAR  1.9439E-02     97.88  0.0000E+00      0.00
  124.00    348.00     -0.16  -999.99    -0.16      0.0000     -0.00 LINEAR  1.8453E-02     97.31  0.0000E+00      0.00
  128.00    348.00     -0.68  -999.99    -0.68      0.0000     -0.00 LINEAR  1.7386E-02     97.13  0.0000E+00      0.00
  132.00    348.00     -1.26  -999.99    -1.26      0.0000     -0.00 LINEAR  1.6247E-02     97.33  0.0000E+00      0.00
  136.00    348.00     -1.93  -999.99    -1.93      0.0000     -0.00 LINEAR  1.5048E-02     97.91  0.0000E+00      0.00
  140.00    348.00     -2.68  -999.99    -2.68      0.0000     -0.00 LINEAR  1.3798E-02     98.87  0.0000E+00      0.00
  144.00    348.00     -3.54  -999.99    -3.54      0.0000     -0.00 LINEAR  1.2506E-02    100.21  0.0000E+00      0.00
  148.00    348.00     -4.51  -999.99    -4.51      0.0000     -0.00 LINEAR  1.1180E-02    101.91  0.0000E+00      0.00
  152.00    348.00     -5.63  -999.99    -5.63      0.0000     -0.00 LINEAR  9.8264E-03    103.97  0.0000E+00      0.00
  156.00    348.00     -6.94  -999.99    -6.94      0.0000     -0.00 LINEAR  8.4523E-03    106.37  0.0000E+00      0.00
  160.00    348.00     -8.50  -999.99    -8.50      0.0000     -0.00 LINEAR  7.0625E-03    109.11  0.0000E+00      0.00
  164.00    348.00    -10.42  -999.99   -10.42      0.0000     -0.00 LINEAR  5.6613E-03    112.17  0.0000E+00      0.00
  168.00    348.00    -12.91  -999.99   -12.91      0.0000     -0.00 LINEAR  4.2520E-03    115.54  0.0000E+00      0.00
  172.00    348.00    -16.42  -999.99   -16.42      0.0000     -0.00 LINEAR  2.8373E-03    119.19  0.0000E+00      0.00
  176.00    348.00    -22.44  -999.99   -22.44      0.0000     -0.00 LINEAR  1.4194E-03    123.12  0.0000E+00      0.00
  180.00    348.00   -999.99  -999.99  -999.99      0.0000      0.00         2.0756E-13    -52.71  0.0000E+00      0.00
    0.00    352.00   -999.99  -999.99  -999.99      0.0000      0.00         0.0000E+00      0.00  0.0000E+00      0.00
    4.00    352.00    -22.16  -999.99   -22.16      0.0000     -0.00 LINEAR  1.4651E-03   -141.51  0.0000E+00      0.00
    8.00    352.00    -16.15  -999.99   -16.15      0.0000     -0.00 LINEAR  2.9280E-03   -146.42  0.0000E+00      0.00
   12.00    352.00    -12.64  -999.99   -12.64      0.0000     -0.00 LINEAR  4.3860E-03   -151.51  0.0000E+00      0.00
   16.00    352.00    -10.16  -999.99   -10.16      0.0000     -0.00 LINEAR  5.8363E-03   -156.76  0.0000E+00      0.00
   20.00    352.00     -8.24  -999.99    -8.24      0.0000     -0.00 LINEAR  7.2755E-03   -162.14  0.0000E+00      0.00
   24.00    352.00     -6.69  -999.99    -6.69      0.0000     -0.00 LINEAR  8.6996E-03   -167.63  0.0000E+00      0.00
   28.00    352.00     -5.39  -999.99    -5.39      0.0000     -0.00 LINEAR  1.0104E-02   -173.20  0.0000E+00      0.00
   32.00    352.00     -4.28  -999.99    -4.28      0.0000     -0.00 LINEAR  1.1482E-02   -178.83  0.0000E+00      0.00
   36.00    352.00     -3.32  -999.99    -3.32      0.0000     -0.00 LINEAR  1.2827E-02    175.51  0.0000E+00      0.00
   40.00    352.00     -2.48  -999.99    -2.48      0.0000     -0.00 LINEAR  1.4133E-02    169.84  0.0000E+00      0.00
   44.00    352.00     -1.74  -999.99    -1.74      0.0000     -0.00 LINEAR  1.5390E-02    164.20  0.0000E+00      0.00
   48.00    352.00     -1.08  -999.99    -1.08      0.0000     -0.00 LINEAR  1.6589E-02    158.62  0.0000E+00      0.00
   52.00    352.00     -0.51  -999.99    -0.51      0.0000     -0.00 LINEAR  1.7721E-02    153.11  0.0000E+00      0.00
   56.00    352.00     -0.01  -999.99    -0.01      0.0000     -0.00 LINEAR  1.8775E-02    147.70  0.0000E+00      0.00
   60.00    352.00      0.43  -999.99     0.43      0.0000     -0.00 LINEAR  1.9741E-02    142.43  0.0000E+00      0.00
   64.00    352.00      0.80  -999.99     0.80      0.0000     -0.00 LINEAR  2.0610E-02    137.31  0.0000E+00      0.00
   68.00    352.00      1.12  -999.99     1.12      0.0000     -0.00 LINEAR  2.1371E-02    132.38  0.0000E+00      0.00
   72.00    352.00      1.37  -999.99     1.37      0.0000     -0.00 LINEAR  2.2016E-02    127.65  0.0000E+00      0.00
   76.00    352.00      1.58  -999.99     1.58      0.0000     -0.00 LINEAR  2.2537E-02    123.14  0.0000E+00      0.00
   80.00    352.00      1.73  -999.99     1.73      0.0000     -0.00 LINEAR  2.2927E-02    118.89  0.0000E+00      0.00
   84.00    352.00      1.82  -999.99     1.82      0.0000     -0.00 LINEAR  2.3181E-02    114.92  0.0000E+00      0.00
   88.00    352.00      1.87  -999.99     1.87      0.0000     -0.00 LINEAR  2.3297E-02    111.23  0.0000E+00      0.00
   92.00    352.00      1.86  -999.99     1.86      0.0000     -0.00 LINEAR  2.3272E-02    107.86  0.0000E+00      0.00
   96.00    352.00      1.79  -999.99     1.79      0.0000     -0.00 LINEAR  2.3107E-02    104.82  0.0000E+00      0.00
  100.00    352.00      1.68  -999.99     1.68      0.0000     -0.00 LINEAR  2.2805E-02    102.12  0.0000E+00      0.00
  104.00    352.00      1.51  -999.99     1.51      0.0000     -0.00 LINEAR  2.2370E-02     99.78  0.0000E+00      0.00
  108.00    352.00      1.29  -999.99     1.29      0.0000     -0.00 LINEAR  2.1809E-02     97.81  0.0000E+00      0.00
  112.00    352.00      1.02  -999.99     1.02      0.0000     -0.00 LINEAR  2.1127E-02     96.22  0.0000E+00      0.00
  116.00    352.00      0.68  -999.99     0.68      0.0000     -0.00 LINEAR  2.0334E-02     95.01  0.0000E+00      0.00
  120.00    352.00      0.29  -999.99     0.29      0.0000     -0.00 LINEAR  1.9439E-02     94.20  0.0000E+00      0.00
  124.00    352.00     -0.16  -999.99    -0.16      0.0000     -0.00 LINEAR  1.8453E-02     93.79  0.0000E+00      0.00
  128.00    352.00     -0.68  -999.99    -0.68      0.0000     -0.00 LINEAR  1.7386E-02     93.78  0.0000E+00      0.00
  132.00    352.00     -1.26  -999.99    -1.26      0.0000     -0.00 LINEAR  1.6247E-02     94.17  0.0000E+00      0.00
  136.00    352.00     -1.93  -999.99    -1.93      0.0000     -0.00 LINEAR  1.5048E-02     94.96  0.0000E+00      0.00
  140.00    352.00     -2.68  -999.99    -2.68      0.0000     -0.00 LINEAR  1.3798E-02     96.14  0.0000E+00      0.00
  144.00    352.00     -3.54  -999.99    -3.54      0.0000     -0.00 LINEAR  1.2506E-02     97.71  0.0000E+00      0.00
  148.00    352.00     -4.51  -999.99    -4.51      0.0000     -0.00 LINEAR  1.1180E-02     99.66  0.0000E+00      0.00
  152.00    352.00     -5.63  -999.99    -5.63      0.0000     -0.00 LINEAR  9.8264E-03    101.98  0.0000E+00      0.00
  156.00    352.00     -6.94  -999.99    -6.94      0.0000     -0.00 LINEAR  8.4523E-03    104.65  0.0000E+00      0.00
  160.00    352.00     -8.50  -999.99    -8.50      0.0000     -0.00 LINEAR  7.0625E-03    107.66  0.0000E+00      0.00
  164.00    352.00    -10.42  -999.99   -10.42      0.0000     -0.00 LINEAR  5.6613E-03    111.01  0.0000E+00      0.00
  168.00    352.00    -12.91  -999.99   -12.91      0.0000     -0.00 LINEAR  4.2520E-03    114.66  0.0000E+00      0.00
  172.00    352.00    -16.42  -999.99   -16.42      0.0000     -0.00 LINEAR  2.8373E-03    118.60  0.0000E+00      0.00
  176.00    352.00    -22.44  -999.99   -22.44      0.0000     -0.00 LINEAR  1.4194E-03    122.82  0.0000E+00      0.00
  180.00    352.00   -999.99  -999.99  -999.99      0.0000      0.00         2.0756E-13    -52.71  0.0000E+00      0.00
    0.00    356.00   -999.99  -999.99  -999.99      0.0000      0.00         0.0000E+00      0.00  0.0000E+00      0.00
    4.00    356.00    -22.16  -999.99   -22.16      0.0000     -0.00 LINEAR  1.4651E-03   -141.79  0.0000E+00      0.00
    8.00    356.00    -16.15  -999.99   -16.15      0.0000     -0.00 LINEAR  2.9280E-03   -146.96  0.0000E+00      0.00
   12.00    356.00    -12.64  -999.99   -12.64      0.0000     -0.00 LINEAR  4.3860E-03   -152.32  0.0000E+00      0.00
   16.00    356.00    -10.16  -999.99   -10.16      0.0000     -0.00 LINEAR  5.8363E-03   -157.84  0.0000E+00      0.00
   20.00    356.00     -8.24  -999.99    -8.24      0.0000     -0.00 LINEAR  7.2755E-03   -163.48  0.0000E+00      0.00
   24.00    356.00     -6.69  -999.99    -6.69      0.0000     -0.00 LINEAR  8.6996E-03   -169.22  0.0000E+00      0.00
   28.00    356.00     -5.39  -999.99    -5.39      0.0000     -0.00 LINEAR  1.0104E-02   -175.04  0.0000E+00      0.00
   32.00    356.00     -4.28  -999.99    -4.28      0.0000     -0.00 LINEAR  1.1482E-02    179.09  0.0000E+00      0.00
   36.00    356.00     -3.32  -999.99    -3.32      0.0000     -0.00 LINEAR  1.2827E-02    173.20  0.0000E+00      0.00
   40.00    356.00     -2.48  -999.99    -2.48      0.0000     -0.00 LINEAR  1.4133E-02    167.32  0.0000E+00      0.00
   44.00    356.00     -1.74  -999.99    -1.74      0.0000     -0.00 LINEAR  1.5390E-02    161.48  0.0000E+00      0.00
   48.00    356.00     -1.08  -999.99    -1.08      0.0000     -0.00 LINEAR  1.6589E-02    155.70  0.0000E+00      0.00
   52.00    356.00     -0.51  -999.99    -0.51      0.0000     -0.00 LINEAR  1.7721E-02    150.02  0.0000E+00      0.00
   56.00    356.00     -0.01  -999.99    -0.01      0.0000     -0.00 LINEAR  1.8775E-02    144.45  0.0000E+00      0.00
   60.00    356.00      0.43  -999.99     0.43      0.0000     -0.00 LINEAR  1.9741E-02    139.03  0.0000E+00      0.00
   64.00    356.00      0.80  -999.99     0.80      0.0000     -0.00 LINEAR  2.0610E-02    133.79  0.0000E+00      0.00
   68.00    356.00      1.12  -999.99     1.12      0.0000     -0.00 LINEAR  2.1371E-02    128.74  0.0000E+00      0.00
   72.00    356.00      1.37  -999.99     1.37      0.0000     -0.00 LINEAR  2.2016E-02    123.92  0.0000E+00      0.00
   76.00    356.00      1.58  -999.99     1.58      0.0000     -0.00 LINEAR  2.2537E-02    119.34  0.0000E+00      0.00
   80.00    356.00      1.73  -999.99     1.73      0.0000     -0.00 LINEAR  2.2927E-02    115.03  0.0000E+00      0.00
   84.00    356.00      1.82  -999.99     1.82      0.0000     -0.00 LINEAR  2.3181E-02    111.02  0.0000E+00      0.00
   88.00    356.00      1.87  -999.99     1.87      0.0000     -0.00 LINEAR  2.3297E-02    107.32  0.0000E+00      0.00
   92.00    356.00      1.86  -999.99     1.86      0.0000     -0.00 LINEAR  2.3272E-02    103.94  0.0000E+00      0.00
   96.00    356.00      1.79  -999.99     1.79      0.0000     -0.00 LINEAR  2.3107E-02    100.92  0.0000E+00      0.00
  100.00    356.00      1.68  -999.99     1.68      0.0000     -0.00 LINEAR  2.2805E-02     98.26  0.0000E+00      0.00
  104.00    356.00      1.51  -999.99     1.51      0.0000     -0.00 LINEAR  2.2370E-02     95.97  0.0000E+00      0.00
  108.00    356.00      1.29  -999.99     1.29      0.0000     -0.00 LINEAR  2.1809E-02     94.08  0.0000E+00      0.00
  112.00    356.00      1.02  -999.99     1.02      0.0000     -0.00 LINEAR  2.1127E-02     92.58  0.0000E+00      0.00
  116.00    356.00      0.68  -999.99     0.68      0.0000     -0.00 LINEAR  2.0334E-02     91.49  0.0000E+00      0.00
  120.00    356.00      0.29  -999.99     0.29      0.0000     -0.00 LINEAR  1.9439E-02     90.81  0.0000E+00      0.00
  124.00    356.00     -0.16  -999.99    -0.16      0.0000     -0.00 LINEAR  1.8453E-02     90.54  0.0000E+00      0.00
  128.00    356.00     -0.68  -999.99    -0.68      0.0000     -0.00 LINEAR  1.7386E-02     90.69  0.0000E+00      0.00
  132.00    356.00     -1.26  -999.99    -1.26      0.0000     -0.00 LINEAR  1.6247E-02     91.26  0.0000E+00      0.00
  136.00    356.00     -1.93  -999.99    -1.93      0.0000     -0.00 LINEAR  1.5048E-02     92.24  0.0000E+00      0.00
  140.00    356.00     -2.68  -999.99    -2.68      0.0000     -0.00 LINEAR  1.3798E-02     93.62  0.0000E+00      0.00
  144.00    356.00     -3.54  -999.99    -3.54      0.0000     -0.00 LINEAR  1.2506E-02     95.41  0.0000E+00      0.00
  148.00    356.00     -4.51  -999.99    -4.51      0.0000     -0.00 LINEAR  1.1180E-02     97.58  0.0000E+00      0.00
  152.00    356.00     -5.63  -999.99    -5.63      0.0000     -0.00 LINEAR  9.8264E-03    100.13  0.0000E+00      0.00
  156.00    356.00     -6.94  -999.99    -6.94      0.0000     -0.00 LINEAR  8.4523E-03    103.05  0.0000E+00      0.00
  160.00    356.00     -8.50  -999.99    -8.50      0.0000     -0.00 LINEAR  7.0625E-03    106.32  0.0000E+00      0.00
  164.00    356.00    -10.42  -999.99   -10.42      0.0000     -0.00 LINEAR  5.6613E-03    109.92  0.0000E+00      0.00
  168.00    356.00    -12.91  -999.99   -12.91      0.0000     -0.00 LINEAR  4.2520E-03    113.84  0.0000E+00      0.00
  172.00    356.00    -16.42  -999.99   -16.42      0.0000     -0.00 LINEAR  2.8373E-03    118.06  0.0000E+00      0.00
  176.00    356.00    -22.44  -999.99   -22.44      0.0000     -0.00 LINEAR  1.4194E-03    122.55  0.0000E+00      0.00
  180.00    356.00   -999.99  -999.99  -999.99      0.0000      0.00         2.0756E-13    -52.71  0.0000E+00      0.00








*****  DATA CARD N0.   5 EN   0     0     0     0  0.00000E+00  0.00000E+00  0.00000E+00  0.00000E+00  0.00000E+00  0.00000E+00

  TOTAL RUN TIME: 30 msec