


                                __________________________________________
                               |                                          |
                               | NUMERICAL ELECTROMAGNETICS CODE (nec2++) |
                               | Translated to 'C++' in Double Precision  |
                               |        Version 1.5.1 [2014-01-21]        |
                               |__________________________________________|



                                -------- STRUCTURE SPECIFICATION --------
                                COORDINATES MUST BE INPUT IN
                                METERS OR BE SCALED TO METERS
                                BEFORE STRUCTURE INPUT IS ENDED
  WIRE                                                                                 SEG FIRST  LAST  TAG
   No:        X1         Y1         Z1         X2         Y2         Z2       RADIUS   No:   SEG   SEG  No:

     1      0.1016     0.1016     0.6932     0.1016     0.1016     1.1632     0.0010     8     1     8    1
     2      0.1016     0.1016     0.2232     0.1016     0.1016     0.6932     0.0010     8     9    16    2
     STRUCTURE SCALED BY FACTOR:    1.00000

     TOTAL SEGMENTS USED: 16   SEGMENTS IN A SYMMETRIC CELL: 16   SYMMETRY FLAG: 0


                               ---------- SEGMENTATION DATA ----------
                                        COORDINATES IN METERS
                            I+ AND I- INDICATE THE SEGMENTS BEFORE AND AFTER I

   SEG    COORDINATES OF SEGM CENTER     SEGM    ORIENTATION ANGLES    WIRE    CONNECTION DATA   TAG
   No:       X         Y         Z      LENGTH     ALPHA      BETA    RADIUS    I-     I    I+   NO:
     1    0.1016    0.1016    0.7226    0.0587   90.0000    0.0000    0.0010    16     1     2     1
     2    0.1016    0.1016    0.7813    0.0587   90.0000    0.0000    0.0010     1     2     3     1
     3    0.1016    0.1016    0.8401    0.0587   90.0000    0.0000    0.0010     2     3     4     1
     4    0.1016    0.1016    0.8988    0.0587   90.0000    0.0000    0.0010     3     4     5     1
     5    0.1016    0.1016    0.9576    0.0587   90.0000    0.0000    0.0010     4     5     6     1
     6    0.1016    0.1016    1.0163    0.0587   90.0000    0.0000    0.0010     5     6     7     1
     7    0.1016    0.1016    1.0751    0.0588   90.0000    0.0000    0.0010     6     7     8     1
     8    0.1016    0.1016    1.1338    0.0588   90.0000    0.0000    0.0010     7     8     0     1
     9    0.1016    0.1016    0.2526    0.0588   90.0000    0.0000    0.0010     0     9    10     2
    10    0.1016    0.1016    0.3113    0.0588   90.0000    0.0000    0.0010     9    10    11     2
    11    0.1016    0.1016    0.3701    0.0588   90.0000    0.0000    0.0010    10    11    12     2
    12    0.1016    0.1016    0.4288    0.0588   90.0000    0.0000    0.0010    11    12    13     2
    13    0.1016    0.1016    0.4876    0.0588   90.0000    0.0000    0.0010    12    13    14     2
    14    0.1016    0.1016    0.5463    0.0587   90.0000    0.0000    0.0010    13    14    15     2
    15    0.1016    0.1016    0.6051    0.0587   90.0000    0.0000    0.0010    14    15    16     2
    16    0.1016    0.1016    0.6638    0.0587   90.0000    0.0000    0.0010    15    16     1     2



*****  DATA CARD N0.   1 GN  -1     0     0     0  0.00000E+00  0.00000E+00  0.00000E+00  0.00000E+00  0.00000E+00  0.00000E+00
*****  DATA CARD N0.   2 FR   0     1     0     0  1.00000E+02  1.00000E+01  0.00000E+00  0.00000E+00  0.00000E+00  0.00000E+00
*****  DATA CARD N0.   3 EX   0     1     1     0  1.00000E+00  0.00000E+00  0.00000E+00  0.00000E+00  0.00000E+00  0.00000E+00
*****  DATA CARD N0.   4 RP   0    46    90  1000  0.00000E+00  0.00000E+00  4.00000E+00  4.00000E+00  0.00000E+00  0.00000E+00


                               --------- FREQUENCY --------
                               FREQUENCY=  1.0000E+02 MHZ
                               WAVELENGTH= 2.9980E+00 METERS


                        APPROXIMATE INTEGRATION EMPLOYED FOR SEGMENTS
                        THAT ARE MORE THAN 1.000 WAVELENGTHS APART
WARNING- SEGMENT[0] LENGTH TOO SMALL (0.019597)
WARNING- SEGMENT[1] LENGTH TOO SMALL (0.019597)
WARNING- SEGMENT[2] LENGTH TOO SMALL (0.019597)
WARNING- SEGMENT[3] LENGTH TOO SMALL (0.019597)
WARNING- SEGMENT[4] LENGTH TOO SMALL (0.019597)
WARNING- SEGMENT[5] LENGTH TOO SMALL (0.019597)
WARNING- SEGMENT[6] LENGTH TOO SMALL (0.019597)
WARNING- SEGMENT[7] LENGTH TOO SMALL (0.019597)
WARNING- SEGMENT[8] LENGTH TOO SMALL (0.019597)
WARNING- SEGMENT[9] LENGTH TOO SMALL (0.019597)
WARNING- SEGMENT[10] LENGTH TOO SMALL (0.019597)
WARNING- SEGMENT[11] LENGTH TOO SMALL (0.019597)
WARNING- SEGMENT[12] LENGTH TOO SMALL (0.019597)
WARNING- SEGMENT[13] LENGTH TOO SMALL (0.019597)
WARNING- SEGMENT[14] LENGTH TOO SMALL (0.019597)
WARNING- SEGMENT[15] LENGTH TOO SMALL (0.019597)



                          ------ STRUCTURE IMPEDANCE LOADING ------
                                 THIS STRUCTURE IS NOT LOADED



                            -------- ANTENNA ENVIRONMENT --------
                            FREE SPACE



                             ---------- MATRIX TIMING ----------
                               FILL= 0 msec  FACTOR: 0 msec


                      ----- ANTENNA INPUT PARAMETERS -----
  TAG   SEG       VOLTAGE (VOLTS)         CURRENT (AMPS)         IMPEDANCE (OHMS)        ADMITTANCE (MHOS)     POWER
  NO.   NO.     REAL      IMAGINARY     REAL      IMAGINARY     REAL      IMAGINARY    REAL       IMAGINARY   (WATTS)
   1     1  1.0000E+00  0.0000E+00  1.4568E-04  2.4820E-03  2.3567E+01 -4.0152E+02  1.4568E-04  2.4820E-03  7.2839E-05







                        ----- CURRENTS AND LOCATION -----
                            DISTANCES IN WAVELENGTHS 

   SEG  TAG    COORDINATES OF SEGM CENTER     SEGM    ------------- CURRENT (AMPS) -------------
   No:  No:       X         Y         Z      LENGTH     REAL      IMAGINARY    MAGN        PHASE
     1    1    0.0339    0.0339    0.2410   0.01960  1.4568E-04  2.4820E-03  2.4862E-03   86.641 
     2    1    0.0339    0.0339    0.2606   0.01960  1.4116E-04  2.2484E-03  2.2529E-03   86.408 
     3    1    0.0339    0.0339    0.2802   0.01960  1.3216E-04  1.9605E-03  1.9650E-03   86.144 
     4    1    0.0339    0.0339    0.2998   0.01960  1.1875E-04  1.6616E-03  1.6659E-03   85.912 
     5    1    0.0339    0.0339    0.3194   0.01960  1.0102E-04  1.3432E-03  1.3470E-03   85.699 
     6    1    0.0339    0.0339    0.3390   0.01960  7.9052E-05  1.0040E-03  1.0071E-03   85.498 
     7    1    0.0339    0.0339    0.3586   0.01960  5.2747E-05  6.4238E-04  6.4454E-04   85.306 
     8    1    0.0339    0.0339    0.3782   0.01960  2.0697E-05  2.4257E-04  2.4345E-04   85.123 
     9    2    0.0339    0.0339    0.0842   0.01960  2.0674E-05  2.2535E-04  2.2630E-04   84.758 
    10    2    0.0339    0.0339    0.1038   0.01960  5.2696E-05  5.9638E-04  5.9870E-04   84.950 
    11    2    0.0339    0.0339    0.1234   0.01960  7.8988E-05  9.3128E-04  9.3462E-04   85.152 
    12    2    0.0339    0.0339    0.1430   0.01960  1.0095E-04  1.2444E-03  1.2485E-03   85.362 
    13    2    0.0339    0.0339    0.1626   0.01960  1.1869E-04  1.5367E-03  1.5413E-03   85.584 
    14    2    0.0339    0.0339    0.1822   0.01960  1.3211E-04  1.8077E-03  1.8126E-03   85.820 
    15    2    0.0339    0.0339    0.2018   0.01960  1.4113E-04  2.0585E-03  2.0633E-03   86.078 
    16    2    0.0339    0.0339    0.2214   0.01960  1.4567E-04  2.2976E-03  2.3022E-03   86.372 






                               ---------- POWER BUDGET ---------
                               INPUT POWER   =  7.2839E-05 Watts
                               RADIATED POWER=  7.2839E-05 Watts
                               STRUCTURE LOSS=  0.0000E+00 Watts
                               NETWORK LOSS  =  0.0000E+00 Watts
                               EFFICIENCY    =  100.00 Percent


                         ----- RADIATION PATTERNS -----
 ---- ANGLES -----     ----- POWER GAINS -----       ---- POLARIZATION ----   ---- E(THETA) ----    ----- E(PHI) ------
  THETA      PHI       VERTC   HORIZ   TOTAL       AXIAL      TILT  SENSE   MAGNITUDE    PHASE    MAGNITUDE     PHASE
 DEGREES   DEGREES        DB       DB       DB       RATIO   DEGREES            VOLTS/M   DEGREES     VOLTS/M   DEGREES
    0.00      0.00   -999.99  -999.99  -999.99      0.0000      0.00         0.0000E+00      0.00  0.0000E+00      0.00
    4.00      0.00    -22.01  -999.99   -22.01      0.0000     -0.00 LINEAR  5.2461E-03    -99.32  0.0000E+00      0.00
    8.00      0.00    -15.99  -999.99   -15.99      0.0000     -0.00 LINEAR  1.0480E-02    -99.09  0.0000E+00      0.00
   12.00      0.00    -12.49  -999.99   -12.49      0.0000     -0.00 LINEAR  1.5691E-02    -99.27  0.0000E+00      0.00
   16.00      0.00    -10.01  -999.99   -10.01      0.0000     -0.00 LINEAR  2.0864E-02    -99.87  0.0000E+00      0.00
   20.00      0.00     -8.11  -999.99    -8.11      0.0000     -0.00 LINEAR  2.5986E-02   -100.87  0.0000E+00      0.00
   24.00      0.00     -6.56  -999.99    -6.56      0.0000     -0.00 LINEAR  3.1040E-02   -102.28  0.0000E+00      0.00
   28.00      0.00     -5.27  -999.99    -5.27      0.0000     -0.00 LINEAR  3.6007E-02   -104.09  0.0000E+00      0.00
   32.00      0.00     -4.17  -999.99    -4.17      0.0000     -0.00 LINEAR  4.0866E-02   -106.29  0.0000E+00      0.00
   36.00      0.00     -3.22  -999.99    -3.22      0.0000     -0.00 LINEAR  4.5595E-02   -108.87  0.0000E+00      0.00
   40.00      0.00     -2.39  -999.99    -2.39      0.0000     -0.00 LINEAR  5.0169E-02   -111.82  0.0000E+00      0.00
   44.00      0.00     -1.66  -999.99    -1.66      0.0000     -0.00 LINEAR  5.4558E-02   -115.11  0.0000E+00      0.00
   48.00      0.00     -1.02  -999.99    -1.02      0.0000     -0.00 LINEAR  5.8736E-02   -118.75  0.0000E+00      0.00
   52.00      0.00     -0.46  -999.99    -0.46      0.0000     -0.00 LINEAR  6.2669E-02   -122.70  0.0000E+00      0.00
   56.00      0.00      0.03  -999.99     0.03      0.0000     -0.00 LINEAR  6.6328E-02   -126.94  0.0000E+00      0.00
   60.00      0.00      0.46  -999.99     0.46      0.0000     -0.00 LINEAR  6.9680E-02   -131.47  0.0000E+00      0.00
   64.00      0.00      0.83  -999.99     0.83      0.0000     -0.00 LINEAR  7.2695E-02   -136.25  0.0000E+00      0.00
   68.00      0.00      1.14  -999.99     1.14      0.0000     -0.00 LINEAR  7.5343E-02   -141.27  0.0000E+00      0.00
   72.00      0.00      1.39  -999.99     1.39      0.0000     -0.00 LINEAR  7.7597E-02   -146.49  0.0000E+00      0.00
   76.00      0.00      1.60  -999.99     1.60      0.0000     -0.00 LINEAR  7.9433E-02   -151.89  0.0000E+00      0.00
   80.00      0.00      1.75  -999.99     1.75      0.0000     -0.00 LINEAR  8.0830E-02   -157.45  0.0000E+00      0.00
   84.00      0.00      1.85  -999.99     1.85      0.0000     -0.00 LINEAR  8.1772E-02   -163.14  0.0000E+00      0.00
   88.00      0.00      1.90  -999.99     1.90      0.0000     -0.00 LINEAR  8.2249E-02   -168.93  0.0000E+00      0.00
   92.00      0.00      1.90  -999.99     1.90      0.0000     -0.00 LINEAR  8.2254E-02   -174.80  0.0000E+00      0.00
   96.00      0.00      1.85  -999.99     1.85      0.0000     -0.00 LINEAR  8.1788E-02    179.29  0.0000E+00      0.00
  100.00      0.00      1.75  -999.99     1.75      0.0000     -0.00 LINEAR  8.0856E-02    173.37  0.0000E+00      0.00
  104.00      0.00      1.60  -999.99     1.60      0.0000     -0.00 LINEAR  7.9469E-02    167.46  0.0000E+00      0.00
  108.00      0.00      1.40  -999.99     1.40      0.0000     -0.00 LINEAR  7.7643E-02    161.58  0.0000E+00      0.00
  112.00      0.00      1.14  -999.99     1.14      0.0000     -0.00 LINEAR  7.5397E-02    155.78  0.0000E+00      0.00
  116.00      0.00      0.84  -999.99     0.84      0.0000     -0.00 LINEAR  7.2756E-02    150.08  0.0000E+00      0.00
  120.00      0.00      0.47  -999.99     0.47      0.0000     -0.00 LINEAR  6.9747E-02    144.51  0.0000E+00      0.00
  124.00      0.00      0.04  -999.99     0.04      0.0000     -0.00 LINEAR  6.6399E-02    139.08  0.0000E+00      0.00
  128.00      0.00     -0.45  -999.99    -0.45      0.0000     -0.00 LINEAR  6.2744E-02    133.84  0.0000E+00      0.00
  132.00      0.00     -1.01  -999.99    -1.01      0.0000     -0.00 LINEAR  5.8811E-02    128.80  0.0000E+00      0.00
  136.00      0.00     -1.65  -999.99    -1.65      0.0000     -0.00 LINEAR  5.4634E-02    123.99  0.0000E+00      0.00
  140.00      0.00     -2.38  -999.99    -2.38      0.0000     -0.00 LINEAR  5.0243E-02    119.43  0.0000E+00      0.00
  144.00      0.00     -3.21  -999.99    -3.21      0.0000     -0.00 LINEAR  4.5667E-02    115.15  0.0000E+00      0.00
  148.00      0.00     -4.16  -999.99    -4.16      0.0000     -0.00 LINEAR  4.0934E-02    111.17  0.0000E+00      0.00
  152.00      0.00     -5.26  -999.99    -5.26      0.0000     -0.00 LINEAR  3.6068E-02    107.50  0.0000E+00      0.00
  156.00      0.00     -6.55  -999.99    -6.55      0.0000     -0.00 LINEAR  3.1095E-02    104.16  0.0000E+00      0.00
  160.00      0.00     -8.09  -999.99    -8.09      0.0000     -0.00 LINEAR  2.6034E-02    101.18  0.0000E+00      0.00
  164.00      0.00    -10.00  -999.99   -10.00      0.0000     -0.00 LINEAR  2.0904E-02     98.56  0.0000E+00      0.00
  168.00      0.00    -12.47  -999.99   -12.47      0.0000     -0.00 LINEAR  1.5721E-02     96.31  0.0000E+00      0.00
  172.00      0.00    -15.98  -999.99   -15.98      0.0000     -0.00 LINEAR  1.0501E-02     94.45  0.0000E+00      0.00
  176.00      0.00    -21.99  -999.99   -21.99      0.0000     -0.00 LINEAR  5.2564E-03     92.99  0.0000E+00      0.00
  180.00      0.00   -999.99  -999.99  -999.99      0.0000      0.00         7.6878E-13    -88.06  0.0000E+00      0.00
    0.00      4.00   -999.99  -999.99  -999.99      0.0000      0.00         0.0000E+00      0.00  0.0000E+00      0.00
    4.00      4.00    -22.01  -999.99   -22.01      0.0000     -0.00 LINEAR  5.2461E-03    -99.26  0.0000E+00      0.00
    8.00      4.00    -15.99  -999.99   -15.99      0.0000     -0.00 LINEAR  1.0480E-02    -98.97  0.0000E+00      0.00
   12.00      4.00    -12.49  -999.99   -12.49      0.0000     -0.00 LINEAR  1.5691E-02    -99.10  0.0000E+00      0.00
   16.00      4.00    -10.01  -999.99   -10.01      0.0000     -0.00 LINEAR  2.0864E-02    -99.64  0.0000E+00      0.00
   20.00      4.00     -8.11  -999.99    -8.11      0.0000     -0.00 LINEAR  2.5986E-02   -100.59  0.0000E+00      0.00
   24.00      4.00     -6.56  -999.99    -6.56      0.0000     -0.00 LINEAR  3.1040E-02   -101.95  0.0000E+00      0.00
   28.00      4.00     -5.27  -999.99    -5.27      0.0000     -0.00 LINEAR  3.6007E-02   -103.71  0.0000E+00      0.00
   32.00      4.00     -4.17  -999.99    -4.17      0.0000     -0.00 LINEAR  4.0866E-02   -105.86  0.0000E+00      0.00
   36.00      4.00     -3.22  -999.99    -3.22      0.0000     -0.00 LINEAR  4.5595E-02   -108.39  0.0000E+00      0.00
   40.00      4.00     -2.39  -999.99    -2.39      0.0000     -0.00 LINEAR  5.0169E-02   -111.29  0.0000E+00      0.00
   44.00      4.00     -1.66  -999.99    -1.66      0.0000     -0.00 LINEAR  5.4558E-02   -114.54  0.0000E+00      0.00
   48.00      4.00     -1.02  -999.99    -1.02      0.0000     -0.00 LINEAR  5.8736E-02   -118.14  0.0000E+00      0.00
   52.00      4.00     -0.46  -999.99    -0.46      0.0000     -0.00 LINEAR  6.2669E-02   -122.05  0.0000E+00      0.00
   56.00      4.00      0.03  -999.99     0.03      0.0000     -0.00 LINEAR  6.6328E-02   -126.26  0.0000E+00      0.00
   60.00      4.00      0.46  -999.99     0.46      0.0000     -0.00 LINEAR  6.9680E-02   -130.76  0.0000E+00      0.00
   64.00      4.00      0.83  -999.99     0.83      0.0000     -0.00 LINEAR  7.2695E-02   -135.51  0.0000E+00      0.00
   68.00      4.00      1.14  -999.99     1.14      0.0000     -0.00 LINEAR  7.5343E-02   -140.51  0.0000E+00      0.00
   72.00      4.00      1.39  -999.99     1.39      0.0000     -0.00 LINEAR  7.7597E-02   -145.71  0.0000E+00      0.00
   76.00      4.00      1.60  -999.99     1.60      0.0000     -0.00 LINEAR  7.9433E-02   -151.10  0.0000E+00      0.00
   80.00      4.00      1.75  -999.99     1.75      0.0000     -0.00 LINEAR  8.0830E-02   -156.64  0.0000E+00      0.00
   84.00      4.00      1.85  -999.99     1.85      0.0000     -0.00 LINEAR  8.1772E-02   -162.33  0.0000E+00      0.00
   88.00      4.00      1.90  -999.99     1.90      0.0000     -0.00 LINEAR  8.2249E-02   -168.11  0.0000E+00      0.00
   92.00      4.00      1.90  -999.99     1.90      0.0000     -0.00 LINEAR  8.2254E-02   -173.98  0.0000E+00      0.00
   96.00      4.00      1.85  -999.99     1.85      0.0000     -0.00 LINEAR  8.1788E-02   -179.89  0.0000E+00      0.00
  100.00      4.00      1.75  -999.99     1.75      0.0000     -0.00 LINEAR  8.0856E-02    174.18  0.0000E+00      0.00
  104.00      4.00      1.60  -999.99     1.60      0.0000     -0.00 LINEAR  7.9469E-02    168.25  0.0000E+00      0.00
  108.00      4.00      1.40  -999.99     1.40      0.0000     -0.00 LINEAR  7.7643E-02    162.37  0.0000E+00      0.00
  112.00      4.00      1.14  -999.99     1.14      0.0000     -0.00 LINEAR  7.5397E-02    156.55  0.0000E+00      0.00
  116.00      4.00      0.84  -999.99     0.84      0.0000     -0.00 LINEAR  7.2756E-02    150.82  0.0000E+00      0.00
  120.00      4.00      0.47  -999.99     0.47      0.0000     -0.00 LINEAR  6.9747E-02    145.22  0.0000E+00      0.00
  124.00      4.00      0.04  -999.99     0.04      0.0000     -0.00 LINEAR  6.6399E-02    139.76  0.0000E+00      0.00
  128.00      4.00     -0.45  -999.99    -0.45      0.0000     -0.00 LINEAR  6.2744E-02    134.49  0.0000E+00      0.00
  132.00      4.00     -1.01  -999.99    -1.01      0.0000     -0.00 LINEAR  5.8811E-02    129.41  0.0000E+00      0.00
  136.00      4.00     -1.65  -999.99    -1.65      0.0000     -0.00 LINEAR  5.4634E-02    124.56  0.0000E+00      0.00
  140.00      4.00     -2.38  -999.99    -2.38      0.0000     -0.00 LINEAR  5.0243E-02    119.96  0.0000E+00      0.00
  144.00      4.00     -3.21  -999.99    -3.21      0.0000     -0.00 LINEAR  4.5667E-02    115.64  0.0000E+00      0.00
  148.00      4.00     -4.16  -999.99    -4.16      0.0000     -0.00 LINEAR  4.0934E-02    111.60  0.0000E+00      0.00
  152.00      4.00     -5.26  -999.99    -5.26      0.0000     -0.00 LINEAR  3.6068E-02    107.89  0.0000E+00      0.00
  156.00      4.00     -6.55  -999.99    -6.55      0.0000     -0.00 LINEAR  3.1095E-02    104.50  0.0000E+00      0.00
  160.00      4.00     -8.09  -999.99    -8.09      0.0000     -0.00 LINEAR  2.6034E-02    101.46  0.0000E+00      0.00
  164.00      4.00    -10.00  -999.99   -10.00      0.0000     -0.00 LINEAR  2.0904E-02     98.78  0.0000E+00      0.00
  168.00      4.00    -12.47  -999.99   -12.47      0.0000     -0.00 LINEAR  1.5721E-02     96.48  0.0000E+00      0.00
  172.00      4.00    -15.98  -999.99   -15.98      0.0000     -0.00 LINEAR  1.0501E-02     94.57  0.0000E+00      0.00
  176.00      4.00    -21.99  -999.99   -21.99      0.0000     -0.00 LINEAR  5.2564E-03     93.05  0.0000E+00      0.00
  180.00      4.00   -999.99  -999.99  -999.99      0.0000      0.00         7.6878E-13    -88.06  0.0000E+00      0.00
    0.00      8.00   -999.99  -999.99  -999.99      0.0000      0.00         0.0000E+00      0.00  0.0000E+00      0.00
    4.00      8.00    -22.01  -999.99   -22.01      0.0000     -0.00 LINEAR  5.2461E-03    -99.21  0.0000E+00      0.00
    8.00      8.00    -15.99  -999.99   -15.99      0.0000     -0.00 LINEAR  1.0480E-02    -98.87  0.0000E+00      0.00
   12.00      8.00    -12.49  -999.99   -12.49      0.0000     -0.00 LINEAR  1.5691E-02    -98.94  0.0000E+00      0.00
   16.00      8.00    -10.01  -999.99   -10.01      0.0000     -0.00 LINEAR  2.0864E-02    -99.43  0.0000E+00      0.00
   20.00      8.00     -8.11  -999.99    -8.11      0.0000     -0.00 LINEAR  2.5986E-02   -100.33  0.0000E+00      0.00
   24.00      8.00     -6.56  -999.99    -6.56      0.0000     -0.00 LINEAR  3.1040E-02   -101.64  0.0000E+00      0.00
   28.00      8.00     -5.27  -999.99    -5.27      0.0000     -0.00 LINEAR  3.6007E-02   -103.35  0.0000E+00      0.00
   32.00      8.00     -4.17  -999.99    -4.17      0.0000     -0.00 LINEAR  4.0866E-02   -105.46  0.0000E+00      0.00
   36.00      8.00     -3.22  -999.99    -3.22      0.0000     -0.00 LINEAR  4.5595E-02   -107.94  0.0000E+00      0.00
   40.00      8.00     -2.39  -999.99    -2.39      0.0000     -0.00 LINEAR  5.0169E-02   -110.80  0.0000E+00      0.00
   44.00      8.00     -1.66  -999.99    -1.66      0.0000     -0.00 LINEAR  5.4558E-02   -114.02  0.0000E+00      0.00
   48.00      8.00     -1.02  -999.99    -1.02      0.0000     -0.00 LINEAR  5.8736E-02   -117.57  0.0000E+00      0.00
   52.00      8.00     -0.46  -999.99    -0.46      0.0000     -0.00 LINEAR  6.2669E-02   -121.45  0.0000E+00      0.00
   56.00      8.00      0.03  -999.99     0.03      0.0000     -0.00 LINEAR  6.6328E-02   -125.64  0.0000E+00      0.00
   60.00      8.00      0.46  -999.99     0.46      0.0000     -0.00 LINEAR  6.9680E-02   -130.10  0.0000E+00      0.00
   64.00      8.00      0.83  -999.99     0.83      0.0000     -0.00 LINEAR  7.2695E-02   -134.83  0.0000E+00      0.00
   68.00      8.00      1.14  -999.99     1.14      0.0000     -0.00 LINEAR  7.5343E-02   -139.80  0.0000E+00      0.00
   72.00      8.00      1.39  -999.99     1.39      0.0000     -0.00 LINEAR  7.7597E-02   -144.99  0.0000E+00      0.00
   76.00      8.00      1.60  -999.99     1.60      0.0000     -0.00 LINEAR  7.9433E-02   -150.36  0.0000E+00      0.00
   80.00      8.00      1.75  -999.99     1.75      0.0000     -0.00 LINEAR  8.0830E-02   -155.90  0.0000E+00      0.00
   84.00      8.00      1.85  -999.99     1.85      0.0000     -0.00 LINEAR  8.1772E-02   -161.57  0.0000E+00      0.00
   88.00      8.00      1.90  -999.99     1.90      0.0000     -0.00 LINEAR  8.2249E-02   -167.36  0.0000E+00      0.00
   92.00      8.00      1.90  -999.99     1.90      0.0000     -0.00 LINEAR  8.2254E-02   -173.22  0.0000E+00      0.00
   96.00      8.00      1.85  -999.99     1.85      0.0000     -0.00 LINEAR  8.1788E-02   -179.14  0.0000E+00      0.00
  100.00      8.00      1.75  -999.99     1.75      0.0000     -0.00 LINEAR  8.0856E-02    174.92  0.0000E+00      0.00
  104.00      8.00      1.60  -999.99     1.60      0.0000     -0.00 LINEAR  7.9469E-02    168.99  0.0000E+00      0.00
  108.00      8.00      1.40  -999.99     1.40      0.0000     -0.00 LINEAR  7.7643E-02    163.09  0.0000E+00      0.00
  112.00      8.00      1.14  -999.99     1.14      0.0000     -0.00 LINEAR  7.5397E-02    157.25  0.0000E+00      0.00
  116.00      8.00      0.84  -999.99     0.84      0.0000     -0.00 LINEAR  7.2756E-02    151.50  0.0000E+00      0.00
  120.00      8.00      0.47  -999.99     0.47      0.0000     -0.00 LINEAR  6.9747E-02    145.87  0.0000E+00      0.00
  124.00      8.00      0.04  -999.99     0.04      0.0000     -0.00 LINEAR  6.6399E-02    140.39  0.0000E+00      0.00
  128.00      8.00     -0.45  -999.99    -0.45      0.0000     -0.00 LINEAR  6.2744E-02    135.08  0.0000E+00      0.00
  132.00      8.00     -1.01  -999.99    -1.01      0.0000     -0.00 LINEAR  5.8811E-02    129.97  0.0000E+00      0.00
  136.00      8.00     -1.65  -999.99    -1.65      0.0000     -0.00 LINEAR  5.4634E-02    125.09  0.0000E+00      0.00
  140.00      8.00     -2.38  -999.99    -2.38      0.0000     -0.00 LINEAR  5.0243E-02    120.45  0.0000E+00      0.00
  144.00      8.00     -3.21  -999.99    -3.21      0.0000     -0.00 LINEAR  4.5667E-02    116.08  0.0000E+00      0.00
  148.00      8.00     -4.16  -999.99    -4.16      0.0000     -0.00 LINEAR  4.0934E-02    112.01  0.0000E+00      0.00
  152.00      8.00     -5.26  -999.99    -5.26      0.0000     -0.00 LINEAR  3.6068E-02    108.24  0.0000E+00      0.00
  156.00      8.00     -6.55  -999.99    -6.55      0.0000     -0.00 LINEAR  3.1095E-02    104.81  0.0000E+00      0.00
  160.00      8.00     -8.09  -999.99    -8.09      0.0000     -0.00 LINEAR  2.6034E-02    101.72  0.0000E+00      0.00
  164.00      8.00    -10.00  -999.99   -10.00      0.0000     -0.00 LINEAR  2.0904E-02     98.99  0.0000E+00      0.00
  168.00      8.00    -12.47  -999.99   -12.47      0.0000     -0.00 LINEAR  1.5721E-02     96.64  0.0000E+00      0.00
  172.00      8.00    -15.98  -999.99   -15.98      0.0000     -0.00 LINEAR  1.0501E-02     94.67  0.0000E+00      0.00
  176.00      8.00    -21.99  -999.99   -21.99      0.0000     -0.00 LINEAR  5.2564E-03     93.10  0.0000E+00      0.00
  180.00      8.00   -999.99  -999.99  -999.99      0.0000      0.00         7.6878E-13    -88.06  0.0000E+00      0.00
    0.00     12.00   -999.99  -999.99  -999.99      0.0000      0.00         0.0000E+00      0.00  0.0000E+00      0.00
    4.00     12.00    -22.01  -999.99   -22.01      0.0000     -0.00 LINEAR  5.2461E-03    -99.16  0.0000E+00      0.00
    8.00     12.00    -15.99  -999.99   -15.99      0.0000     -0.00 LINEAR  1.0480E-02    -98.77  0.0000E+00      0.00
   12.00     12.00    -12.49  -999.99   -12.49      0.0000     -0.00 LINEAR  1.5691E-02    -98.80  0.0000E+00      0.00
   16.00     12.00    -10.01  -999.99   -10.01      0.0000     -0.00 LINEAR  2.0864E-02    -99.24  0.0000E+00      0.00
   20.00     12.00     -8.11  -999.99    -8.11      0.0000     -0.00 LINEAR  2.5986E-02   -100.10  0.0000E+00      0.00
   24.00     12.00     -6.56  -999.99    -6.56      0.0000     -0.00 LINEAR  3.1040E-02   -101.36  0.0000E+00      0.00
   28.00     12.00     -5.27  -999.99    -5.27      0.0000     -0.00 LINEAR  3.6007E-02   -103.03  0.0000E+00      0.00
   32.00     12.00     -4.17  -999.99    -4.17      0.0000     -0.00 LINEAR  4.0866E-02   -105.09  0.0000E+00      0.00
   36.00     12.00     -3.22  -999.99    -3.22      0.0000     -0.00 LINEAR  4.5595E-02   -107.54  0.0000E+00      0.00
   40.00     12.00     -2.39  -999.99    -2.39      0.0000     -0.00 LINEAR  5.0169E-02   -110.36  0.0000E+00      0.00
   44.00     12.00     -1.66  -999.99    -1.66      0.0000     -0.00 LINEAR  5.4558E-02   -113.54  0.0000E+00      0.00
   48.00     12.00     -1.02  -999.99    -1.02      0.0000     -0.00 LINEAR  5.8736E-02   -117.06  0.0000E+00      0.00
   52.00     12.00     -0.46  -999.99    -0.46      0.0000     -0.00 LINEAR  6.2669E-02   -120.91  0.0000E+00      0.00
   56.00     12.00      0.03  -999.99     0.03      0.0000     -0.00 LINEAR  6.6328E-02   -125.06  0.0000E+00      0.00
   60.00     12.00      0.46  -999.99     0.46      0.0000     -0.00 LINEAR  6.9680E-02   -129.51  0.0000E+00      0.00
   64.00     12.00      0.83  -999.99     0.83      0.0000     -0.00 LINEAR  7.2695E-02   -134.21  0.0000E+00      0.00
   68.00     12.00      1.14  -999.99     1.14      0.0000     -0.00 LINEAR  7.5343E-02   -139.16  0.0000E+00      0.00
   72.00     12.00      1.39  -999.99     1.39      0.0000     -0.00 LINEAR  7.7597E-02   -144.33  0.0000E+00      0.00
   76.00     12.00      1.60  -999.99     1.60      0.0000     -0.00 LINEAR  7.9433E-02   -149.69  0.0000E+00      0.00
   80.00     12.00      1.75  -999.99     1.75      0.0000     -0.00 LINEAR  8.0830E-02   -155.22  0.0000E+00      0.00
   84.00     12.00      1.85  -999.99     1.85      0.0000     -0.00 LINEAR  8.1772E-02   -160.89  0.0000E+00      0.00
   88.00     12.00      1.90  -999.99     1.90      0.0000     -0.00 LINEAR  8.2249E-02   -166.67  0.0000E+00      0.00
   92.00     12.00      1.90  -999.99     1.90      0.0000     -0.00 LINEAR  8.2254E-02   -172.53  0.0000E+00      0.00
   96.00     12.00      1.85  -999.99     1.85      0.0000     -0.00 LINEAR  8.1788E-02   -178.45  0.0000E+00      0.00
  100.00     12.00      1.75  -999.99     1.75      0.0000     -0.00 LINEAR  8.0856E-02    175.60  0.0000E+00      0.00
  104.00     12.00      1.60  -999.99     1.60      0.0000     -0.00 LINEAR  7.9469E-02    169.66  0.0000E+00      0.00
  108.00     12.00      1.40  -999.99     1.40      0.0000     -0.00 LINEAR  7.7643E-02    163.74  0.0000E+00      0.00
  112.00     12.00      1.14  -999.99     1.14      0.0000     -0.00 LINEAR  7.5397E-02    157.89  0.0000E+00      0.00
  116.00     12.00      0.84  -999.99     0.84      0.0000     -0.00 LINEAR  7.2756E-02    152.12  0.0000E+00      0.00
  120.00     12.00      0.47  -999.99     0.47      0.0000     -0.00 LINEAR  6.9747E-02    146.47  0.0000E+00      0.00
  124.00     12.00      0.04  -999.99     0.04      0.0000     -0.00 LINEAR  6.6399E-02    140.96  0.0000E+00      0.00
  128.00     12.00     -0.45  -999.99    -0.45      0.0000     -0.00 LINEAR  6.2744E-02    135.63  0.0000E+00      0.00
  132.00     12.00     -1.01  -999.99    -1.01      0.0000     -0.00 LINEAR  5.8811E-02    130.49  0.0000E+00      0.00
  136.00     12.00     -1.65  -999.99    -1.65      0.0000     -0.00 LINEAR  5.4634E-02    125.57  0.0000E+00      0.00
  140.00     12.00     -2.38  -999.99    -2.38      0.0000     -0.00 LINEAR  5.0243E-02    120.89  0.0000E+00      0.00
  144.00     12.00     -3.21  -999.99    -3.21      0.0000     -0.00 LINEAR  4.5667E-02    116.49  0.0000E+00      0.00
  148.00     12.00     -4.16  -999.99    -4.16      0.0000     -0.00 LINEAR  4.0934E-02    112.37  0.0000E+00      0.00
  152.00     12.00     -5.26  -999.99    -5.26      0.0000     -0.00 LINEAR  3.6068E-02    108.57  0.0000E+00      0.00
  156.00     12.00     -6.55  -999.99    -6.55      0.0000     -0.00 LINEAR  3.1095E-02    105.09  0.0000E+00      0.00
  160.00     12.00     -8.09  -999.99    -8.09      0.0000     -0.00 LINEAR  2.6034E-02    101.95  0.0000E+00      0.00
  164.00     12.00    -10.00  -999.99   -10.00      0.0000     -0.00 LINEAR  2.0904E-02     99.18  0.0000E+00      0.00
  168.00     12.00    -12.47  -999.99   -12.47      0.0000     -0.00 LINEAR  1.5721E-02     96.78  0.0000E+00      0.00
  172.00     12.00    -15.98  -999.99   -15.98      0.0000     -0.00 LINEAR  1.0501E-02     94.77  0.0000E+00      0.00
  176.00     12.00    -21.99  -999.99   -21.99      0.0000     -0.00 LINEAR  5.2564E-03     93.15  0.0000E+00      0.00
  180.00     12.00   -999.99  -999.99  -999.99      0.0000      0.00         7.6878E-13    -88.06  0.0000E+00      0.00
    0.00     16.00   -999.99  -999.99  -999.99      0.0000      0.00         0.0000E+00      0.00  0.0000E+00      0.00
    4.00     16.00    -22.01  -999.99   -22.01      0.0000     -0.00 LINEAR  5.2461E-03    -99.12  0.0000E+00      0.00
    8.00     16.00    -15.99  -999.99   -15.99      0.0000     -0.00 LINEAR  1.0480E-02    -98.69  0.0000E+00      0.00
   12.00     16.00    -12.49  -999.99   -12.49      0.0000     -0.00 LINEAR  1.5691E-02    -98.67  0.0000E+00      0.00
   16.00     16.00    -10.01  -999.99   -10.01      0.0000     -0.00 LINEAR  2.0864E-02    -99.07  0.0000E+00      0.00
   20.00     16.00     -8.11  -999.99    -8.11      0.0000     -0.00 LINEAR  2.5986E-02    -99.88  0.0000E+00      0.00
   24.00     16.00     -6.56  -999.99    -6.56      0.0000     -0.00 LINEAR  3.1040E-02   -101.11  0.0000E+00      0.00
   28.00     16.00     -5.27  -999.99    -5.27      0.0000     -0.00 LINEAR  3.6007E-02   -102.74  0.0000E+00      0.00
   32.00     16.00     -4.17  -999.99    -4.17      0.0000     -0.00 LINEAR  4.0866E-02   -104.76  0.0000E+00      0.00
   36.00     16.00     -3.22  -999.99    -3.22      0.0000     -0.00 LINEAR  4.5595E-02   -107.17  0.0000E+00      0.00
   40.00     16.00     -2.39  -999.99    -2.39      0.0000     -0.00 LINEAR  5.0169E-02   -109.96  0.0000E+00      0.00
   44.00     16.00     -1.66  -999.99    -1.66      0.0000     -0.00 LINEAR  5.4558E-02   -113.11  0.0000E+00      0.00
   48.00     16.00     -1.02  -999.99    -1.02      0.0000     -0.00 LINEAR  5.8736E-02   -116.60  0.0000E+00      0.00
   52.00     16.00     -0.46  -999.99    -0.46      0.0000     -0.00 LINEAR  6.2669E-02   -120.42  0.0000E+00      0.00
   56.00     16.00      0.03  -999.99     0.03      0.0000     -0.00 LINEAR  6.6328E-02   -124.55  0.0000E+00      0.00
   60.00     16.00      0.46  -999.99     0.46      0.0000     -0.00 LINEAR  6.9680E-02   -128.97  0.0000E+00      0.00
   64.00     16.00      0.83  -999.99     0.83      0.0000     -0.00 LINEAR  7.2695E-02   -133.65  0.0000E+00      0.00
   68.00     16.00      1.14  -999.99     1.14      0.0000     -0.00 LINEAR  7.5343E-02   -138.59  0.0000E+00      0.00
   72.00     16.00      1.39  -999.99     1.39      0.0000     -0.00 LINEAR  7.7597E-02   -143.74  0.0000E+00      0.00
   76.00     16.00      1.60  -999.99     1.60      0.0000     -0.00 LINEAR  7.9433E-02   -149.09  0.0000E+00      0.00
   80.00     16.00      1.75  -999.99     1.75      0.0000     -0.00 LINEAR  8.0830E-02   -154.61  0.0000E+00      0.00
   84.00     16.00      1.85  -999.99     1.85      0.0000     -0.00 LINEAR  8.1772E-02   -160.27  0.0000E+00      0.00
   88.00     16.00      1.90  -999.99     1.90      0.0000     -0.00 LINEAR  8.2249E-02   -166.05  0.0000E+00      0.00
   92.00     16.00      1.90  -999.99     1.90      0.0000     -0.00 LINEAR  8.2254E-02   -171.91  0.0000E+00      0.00
   96.00     16.00      1.85  -999.99     1.85      0.0000     -0.00 LINEAR  8.1788E-02   -177.83  0.0000E+00      0.00
  100.00     16.00      1.75  -999.99     1.75      0.0000     -0.00 LINEAR  8.0856E-02    176.21  0.0000E+00      0.00
  104.00     16.00      1.60  -999.99     1.60      0.0000     -0.00 LINEAR  7.9469E-02    170.26  0.0000E+00      0.00
  108.00     16.00      1.40  -999.99     1.40      0.0000     -0.00 LINEAR  7.7643E-02    164.33  0.0000E+00      0.00
  112.00     16.00      1.14  -999.99     1.14      0.0000     -0.00 LINEAR  7.5397E-02    158.46  0.0000E+00      0.00
  116.00     16.00      0.84  -999.99     0.84      0.0000     -0.00 LINEAR  7.2756E-02    152.68  0.0000E+00      0.00
  120.00     16.00      0.47  -999.99     0.47      0.0000     -0.00 LINEAR  6.9747E-02    147.01  0.0000E+00      0.00
  124.00     16.00      0.04  -999.99     0.04      0.0000     -0.00 LINEAR  6.6399E-02    141.48  0.0000E+00      0.00
  128.00     16.00     -0.45  -999.99    -0.45      0.0000     -0.00 LINEAR  6.2744E-02    136.12  0.0000E+00      0.00
  132.00     16.00     -1.01  -999.99    -1.01      0.0000     -0.00 LINEAR  5.8811E-02    130.95  0.0000E+00      0.00
  136.00     16.00     -1.65  -999.99    -1.65      0.0000     -0.00 LINEAR  5.4634E-02    126.00  0.0000E+00      0.00
  140.00     16.00     -2.38  -999.99    -2.38      0.0000     -0.00 LINEAR  5.0243E-02    121.29  0.0000E+00      0.00
  144.00     16.00     -3.21  -999.99    -3.21      0.0000     -0.00 LINEAR  4.5667E-02    116.85  0.0000E+00      0.00
  148.00     16.00     -4.16  -999.99    -4.16      0.0000     -0.00 LINEAR  4.0934E-02    112.70  0.0000E+00      0.00
  152.00     16.00     -5.26  -999.99    -5.26      0.0000     -0.00 LINEAR  3.6068E-02    108.86  0.0000E+00      0.00
  156.00     16.00     -6.55  -999.99    -6.55      0.0000     -0.00 LINEAR  3.1095E-02    105.34  0.0000E+00      0.00
  160.00     16.00     -8.09  -999.99    -8.09      0.0000     -0.00 LINEAR  2.6034E-02    102.17  0.0000E+00      0.00
  164.00     16.00    -10.00  -999.99   -10.00      0.0000     -0.00 LINEAR  2.0904E-02     99.35  0.0000E+00      0.00
  168.00     16.00    -12.47  -999.99   -12.47      0.0000     -0.00 LINEAR  1.5721E-02     96.91  0.0000E+00      0.00
  172.00     16.00    -15.98  -999.99   -15.98      0.0000     -0.00 LINEAR  1.0501E-02     94.86  0.0000E+00      0.00
  176.00     16.00    -21.99  -999.99   -21.99      0.0000     -0.00 LINEAR  5.2564E-03     93.20  0.0000E+00      0.00
  180.00     16.00   -999.99  -999.99  -999.99      0.0000      0.00         7.6878E-13    -88.06  0.0000E+00      0.00
    0.00     20.00   -999.99  -999.99  -999.99      0.0000      0.00         0.0000E+00      0.00  0.0000E+00      0.00
    4.00     20.00    -22.01  -999.99   -22.01      0.0000     -0.00 LINEAR  5.2461E-03    -99.08  0.0000E+00      0.00
    8.00     20.00    -15.99  -999.99   -15.99      0.0000     -0.00 LINEAR  1.0480E-02    -98.61  0.0000E+00      0.00
   12.00     20.00    -12.49  -999.99   -12.49      0.0000     -0.00 LINEAR  1.5691E-02    -98.56  0.0000E+00      0.00
   16.00     20.00    -10.01  -999.99   -10.01      0.0000     -0.00 LINEAR  2.0864E-02    -98.92  0.0000E+00      0.00
   20.00     20.00     -8.11  -999.99    -8.11      0.0000     -0.00 LINEAR  2.5986E-02    -99.70  0.0000E+00      0.00
   24.00     20.00     -6.56  -999.99    -6.56      0.0000     -0.00 LINEAR  3.1040E-02   -100.89  0.0000E+00      0.00
   28.00     20.00     -5.27  -999.99    -5.27      0.0000     -0.00 LINEAR  3.6007E-02   -102.48  0.0000E+00      0.00
   32.00     20.00     -4.17  -999.99    -4.17      0.0000     -0.00 LINEAR  4.0866E-02   -104.47  0.0000E+00      0.00
   36.00     20.00     -3.22  -999.99    -3.22      0.0000     -0.00 LINEAR  4.5595E-02   -106.85  0.0000E+00      0.00
   40.00     20.00     -2.39  -999.99    -2.39      0.0000     -0.00 LINEAR  5.0169E-02   -109.61  0.0000E+00      0.00
   44.00     20.00     -1.66  -999.99    -1.66      0.0000     -0.00 LINEAR  5.4558E-02   -112.73  0.0000E+00      0.00
   48.00     20.00     -1.02  -999.99    -1.02      0.0000     -0.00 LINEAR  5.8736E-02   -116.19  0.0000E+00      0.00
   52.00     20.00     -0.46  -999.99    -0.46      0.0000     -0.00 LINEAR  6.2669E-02   -119.99  0.0000E+00      0.00
   56.00     20.00      0.03  -999.99     0.03      0.0000     -0.00 LINEAR  6.6328E-02   -124.10  0.0000E+00      0.00
   60.00     20.00      0.46  -999.99     0.46      0.0000     -0.00 LINEAR  6.9680E-02   -128.49  0.0000E+00      0.00
   64.00     20.00      0.83  -999.99     0.83      0.0000     -0.00 LINEAR  7.2695E-02   -133.16  0.0000E+00      0.00
   68.00     20.00      1.14  -999.99     1.14      0.0000     -0.00 LINEAR  7.5343E-02   -138.08  0.0000E+00      0.00
   72.00     20.00      1.39  -999.99     1.39      0.0000     -0.00 LINEAR  7.7597E-02   -143.22  0.0000E+00      0.00
   76.00     20.00      1.60  -999.99     1.60      0.0000     -0.00 LINEAR  7.9433E-02   -148.56  0.0000E+00      0.00
   80.00     20.00      1.75  -999.99     1.75      0.0000     -0.00 LINEAR  8.0830E-02   -154.07  0.0000E+00      0.00
   84.00     20.00      1.85  -999.99     1.85      0.0000     -0.00 LINEAR  8.1772E-02   -159.73  0.0000E+00      0.00
   88.00     20.00      1.90  -999.99     1.90      0.0000     -0.00 LINEAR  8.2249E-02   -165.50  0.0000E+00      0.00
   92.00     20.00      1.90  -999.99     1.90      0.0000     -0.00 LINEAR  8.2254E-02   -171.36  0.0000E+00      0.00
   96.00     20.00      1.85  -999.99     1.85      0.0000     -0.00 LINEAR  8.1788E-02   -177.29  0.0000E+00      0.00
  100.00     20.00      1.75  -999.99     1.75      0.0000     -0.00 LINEAR  8.0856E-02    176.75  0.0000E+00      0.00
  104.00     20.00      1.60  -999.99     1.60      0.0000     -0.00 LINEAR  7.9469E-02    170.79  0.0000E+00      0.00
  108.00     20.00      1.40  -999.99     1.40      0.0000     -0.00 LINEAR  7.7643E-02    164.85  0.0000E+00      0.00
  112.00     20.00      1.14  -999.99     1.14      0.0000     -0.00 LINEAR  7.5397E-02    158.97  0.0000E+00      0.00
  116.00     20.00      0.84  -999.99     0.84      0.0000     -0.00 LINEAR  7.2756E-02    153.17  0.0000E+00      0.00
  120.00     20.00      0.47  -999.99     0.47      0.0000     -0.00 LINEAR  6.9747E-02    147.48  0.0000E+00      0.00
  124.00     20.00      0.04  -999.99     0.04      0.0000     -0.00 LINEAR  6.6399E-02    141.93  0.0000E+00      0.00
  128.00     20.00     -0.45  -999.99    -0.45      0.0000     -0.00 LINEAR  6.2744E-02    136.55  0.0000E+00      0.00
  132.00     20.00     -1.01  -999.99    -1.01      0.0000     -0.00 LINEAR  5.8811E-02    131.35  0.0000E+00      0.00
  136.00     20.00     -1.65  -999.99    -1.65      0.0000     -0.00 LINEAR  5.4634E-02    126.38  0.0000E+00      0.00
  140.00     20.00     -2.38  -999.99    -2.38      0.0000     -0.00 LINEAR  5.0243E-02    121.64  0.0000E+00      0.00
  144.00     20.00     -3.21  -999.99    -3.21      0.0000     -0.00 LINEAR  4.5667E-02    117.17  0.0000E+00      0.00
  148.00     20.00     -4.16  -999.99    -4.16      0.0000     -0.00 LINEAR  4.0934E-02    112.99  0.0000E+00      0.00
  152.00     20.00     -5.26  -999.99    -5.26      0.0000     -0.00 LINEAR  3.6068E-02    109.11  0.0000E+00      0.00
  156.00     20.00     -6.55  -999.99    -6.55      0.0000     -0.00 LINEAR  3.1095E-02    105.56  0.0000E+00      0.00
  160.00     20.00     -8.09  -999.99    -8.09      0.0000     -0.00 LINEAR  2.6034E-02    102.35  0.0000E+00      0.00
  164.00     20.00    -10.00  -999.99   -10.00      0.0000     -0.00 LINEAR  2.0904E-02     99.50  0.0000E+00      0.00
  168.00     20.00    -12.47  -999.99   -12.47      0.0000     -0.00 LINEAR  1.5721E-02     97.03  0.0000E+00      0.00
  172.00     20.00    -15.98  -999.99   -15.98      0.0000     -0.00 LINEAR  1.0501E-02     94.93  0.0000E+00      0.00
  176.00     20.00    -21.99  -999.99   -21.99      0.0000     -0.00 LINEAR  5.2564E-03     93.23  0.0000E+00      0.00
  180.00     20.00   -999.99  -999.99  -999.99      0.0000      0.00         7.6878E-13    -88.06  0.0000E+00      0.00
    0.00     24.00   -999.99  -999.99  -999.99      0.0000      0.00         0.0000E+00      0.00  0.0000E+00      0.00
    4.00     24.00    -22.01  -999.99   -22.01      0.0000     -0.00 LINEAR  5.2461E-03    -99.05  0.0000E+00      0.00
    8.00     24.00    -15.99  -999.99   -15.99      0.0000     -0.00 LINEAR  1.0480E-02    -98.54  0.0000E+00      0.00
   12.00     24.00    -12.49  -999.99   -12.49      0.0000     -0.00 LINEAR  1.5691E-02    -98.46  0.0000E+00      0.00
   16.00     24.00    -10.01  -999.99   -10.01      0.0000     -0.00 LINEAR  2.0864E-02    -98.79  0.0000E+00      0.00
   20.00     24.00     -8.11  -999.99    -8.11      0.0000     -0.00 LINEAR  2.5986E-02    -99.54  0.0000E+00      0.00
   24.00     24.00     -6.56  -999.99    -6.56      0.0000     -0.00 LINEAR  3.1040E-02   -100.69  0.0000E+00      0.00
   28.00     24.00     -5.27  -999.99    -5.27      0.0000     -0.00 LINEAR  3.6007E-02   -102.26  0.0000E+00      0.00
   32.00     24.00     -4.17  -999.99    -4.17      0.0000     -0.00 LINEAR  4.0866E-02   -104.22  0.0000E+00      0.00
   36.00     24.00     -3.22  -999.99    -3.22      0.0000     -0.00 LINEAR  4.5595E-02   -106.58  0.0000E+00      0.00
   40.00     24.00     -2.39  -999.99    -2.39      0.0000     -0.00 LINEAR  5.0169E-02   -109.31  0.0000E+00      0.00
   44.00     24.00     -1.66  -999.99    -1.66      0.0000     -0.00 LINEAR  5.4558E-02   -112.40  0.0000E+00      0.00
   48.00     24.00     -1.02  -999.99    -1.02      0.0000     -0.00 LINEAR  5.8736E-02   -115.84  0.0000E+00      0.00
   52.00     24.00     -0.46  -999.99    -0.46      0.0000     -0.00 LINEAR  6.2669E-02   -119.62  0.0000E+00      0.00
   56.00     24.00      0.03  -999.99     0.03      0.0000     -0.00 LINEAR  6.6328E-02   -123.71  0.0000E+00      0.00
   60.00     24.00      0.46  -999.99     0.46      0.0000     -0.00 LINEAR  6.9680E-02   -128.09  0.0000E+00      0.00
   64.00     24.00      0.83  -999.99     0.83      0.0000     -0.00 LINEAR  7.2695E-02   -132.74  0.0000E+00      0.00
   68.00     24.00      1.14  -999.99     1.14      0.0000     -0.00 LINEAR  7.5343E-02   -137.64  0.0000E+00      0.00
   72.00     24.00      1.39  -999.99     1.39      0.0000     -0.00 LINEAR  7.7597E-02   -142.77  0.0000E+00      0.00
   76.00     24.00      1.60  -999.99     1.60      0.0000     -0.00 LINEAR  7.9433E-02   -148.10  0.0000E+00      0.00
   80.00     24.00      1.75  -999.99     1.75      0.0000     -0.00 LINEAR  8.0830E-02   -153.61  0.0000E+00      0.00
   84.00     24.00      1.85  -999.99     1.85      0.0000     -0.00 LINEAR  8.1772E-02   -159.26  0.0000E+00      0.00
   88.00     24.00      1.90  -999.99     1.90      0.0000     -0.00 LINEAR  8.2249E-02   -165.03  0.0000E+00      0.00
   92.00     24.00      1.90  -999.99     1.90      0.0000     -0.00 LINEAR  8.2254E-02   -170.89  0.0000E+00      0.00
   96.00     24.00      1.85  -999.99     1.85      0.0000     -0.00 LINEAR  8.1788E-02   -176.82  0.0000E+00      0.00
  100.00     24.00      1.75  -999.99     1.75      0.0000     -0.00 LINEAR  8.0856E-02    177.22  0.0000E+00      0.00
  104.00     24.00      1.60  -999.99     1.60      0.0000     -0.00 LINEAR  7.9469E-02    171.25  0.0000E+00      0.00
  108.00     24.00      1.40  -999.99     1.40      0.0000     -0.00 LINEAR  7.7643E-02    165.30  0.0000E+00      0.00
  112.00     24.00      1.14  -999.99     1.14      0.0000     -0.00 LINEAR  7.5397E-02    159.41  0.0000E+00      0.00
  116.00     24.00      0.84  -999.99     0.84      0.0000     -0.00 LINEAR  7.2756E-02    153.59  0.0000E+00      0.00
  120.00     24.00      0.47  -999.99     0.47      0.0000     -0.00 LINEAR  6.9747E-02    147.89  0.0000E+00      0.00
  124.00     24.00      0.04  -999.99     0.04      0.0000     -0.00 LINEAR  6.6399E-02    142.32  0.0000E+00      0.00
  128.00     24.00     -0.45  -999.99    -0.45      0.0000     -0.00 LINEAR  6.2744E-02    136.92  0.0000E+00      0.00
  132.00     24.00     -1.01  -999.99    -1.01      0.0000     -0.00 LINEAR  5.8811E-02    131.70  0.0000E+00      0.00
  136.00     24.00     -1.65  -999.99    -1.65      0.0000     -0.00 LINEAR  5.4634E-02    126.71  0.0000E+00      0.00
  140.00     24.00     -2.38  -999.99    -2.38      0.0000     -0.00 LINEAR  5.0243E-02    121.95  0.0000E+00      0.00
  144.00     24.00     -3.21  -999.99    -3.21      0.0000     -0.00 LINEAR  4.5667E-02    117.45  0.0000E+00      0.00
  148.00     24.00     -4.16  -999.99    -4.16      0.0000     -0.00 LINEAR  4.0934E-02    113.24  0.0000E+00      0.00
  152.00     24.00     -5.26  -999.99    -5.26      0.0000     -0.00 LINEAR  3.6068E-02    109.33  0.0000E+00      0.00
  156.00     24.00     -6.55  -999.99    -6.55      0.0000     -0.00 LINEAR  3.1095E-02    105.75  0.0000E+00      0.00
  160.00     24.00     -8.09  -999.99    -8.09      0.0000     -0.00 LINEAR  2.6034E-02    102.51  0.0000E+00      0.00
  164.00     24.00    -10.00  -999.99   -10.00      0.0000     -0.00 LINEAR  2.0904E-02     99.63  0.0000E+00      0.00
  168.00     24.00    -12.47  -999.99   -12.47      0.0000     -0.00 LINEAR  1.5721E-02     97.12  0.0000E+00      0.00
  172.00     24.00    -15.98  -999.99   -15.98      0.0000     -0.00 LINEAR  1.0501E-02     95.00  0.0000E+00      0.00
  176.00     24.00    -21.99  -999.99   -21.99      0.0000     -0.00 LINEAR  5.2564E-03     93.27  0.0000E+00      0.00
  180.00     24.00   -999.99  -999.99  -999.99      0.0000      0.00         7.6878E-13    -88.06  0.0000E+00      0.00
    0.00     28.00   -999.99  -999.99  -999.99      0.0000      0.00         0.0000E+00      0.00  0.0000E+00      0.00
    4.00     28.00    -22.01  -999.99   -22.01      0.0000     -0.00 LINEAR  5.2461E-03    -99.02  0.0000E+00      0.00
    8.00     28.00    -15.99  -999.99   -15.99      0.0000     -0.00 LINEAR  1.0480E-02    -98.49  0.0000E+00      0.00
   12.00     28.00    -12.49  -999.99   -12.49      0.0000     -0.00 LINEAR  1.5691E-02    -98.38  0.0000E+00      0.00
   16.00     28.00    -10.01  -999.99   -10.01      0.0000     -0.00 LINEAR  2.0864E-02    -98.68  0.0000E+00      0.00
   20.00     28.00     -8.11  -999.99    -8.11      0.0000     -0.00 LINEAR  2.5986E-02    -99.40  0.0000E+00      0.00
   24.00     28.00     -6.56  -999.99    -6.56      0.0000     -0.00 LINEAR  3.1040E-02   -100.53  0.0000E+00      0.00
   28.00     28.00     -5.27  -999.99    -5.27      0.0000     -0.00 LINEAR  3.6007E-02   -102.08  0.0000E+00      0.00
   32.00     28.00     -4.17  -999.99    -4.17      0.0000     -0.00 LINEAR  4.0866E-02   -104.02  0.0000E+00      0.00
   36.00     28.00     -3.22  -999.99    -3.22      0.0000     -0.00 LINEAR  4.5595E-02   -106.35  0.0000E+00      0.00
   40.00     28.00     -2.39  -999.99    -2.39      0.0000     -0.00 LINEAR  5.0169E-02   -109.05  0.0000E+00      0.00
   44.00     28.00     -1.66  -999.99    -1.66      0.0000     -0.00 LINEAR  5.4558E-02   -112.13  0.0000E+00      0.00
   48.00     28.00     -1.02  -999.99    -1.02      0.0000     -0.00 LINEAR  5.8736E-02   -115.55  0.0000E+00      0.00
   52.00     28.00     -0.46  -999.99    -0.46      0.0000     -0.00 LINEAR  6.2669E-02   -119.31  0.0000E+00      0.00
   56.00     28.00      0.03  -999.99     0.03      0.0000     -0.00 LINEAR  6.6328E-02   -123.38  0.0000E+00      0.00
   60.00     28.00      0.46  -999.99     0.46      0.0000     -0.00 LINEAR  6.9680E-02   -127.75  0.0000E+00      0.00
   64.00     28.00      0.83  -999.99     0.83      0.0000     -0.00 LINEAR  7.2695E-02   -132.39  0.0000E+00      0.00
   68.00     28.00      1.14  -999.99     1.14      0.0000     -0.00 LINEAR  7.5343E-02   -137.28  0.0000E+00      0.00
   72.00     28.00      1.39  -999.99     1.39      0.0000     -0.00 LINEAR  7.7597E-02   -142.40  0.0000E+00      0.00
   76.00     28.00      1.60  -999.99     1.60      0.0000     -0.00 LINEAR  7.9433E-02   -147.72  0.0000E+00      0.00
   80.00     28.00      1.75  -999.99     1.75      0.0000     -0.00 LINEAR  8.0830E-02   -153.22  0.0000E+00      0.00
   84.00     28.00      1.85  -999.99     1.85      0.0000     -0.00 LINEAR  8.1772E-02   -158.87  0.0000E+00      0.00
   88.00     28.00      1.90  -999.99     1.90      0.0000     -0.00 LINEAR  8.2249E-02   -164.64  0.0000E+00      0.00
   92.00     28.00      1.90  -999.99     1.90      0.0000     -0.00 LINEAR  8.2254E-02   -170.50  0.0000E+00      0.00
   96.00     28.00      1.85  -999.99     1.85      0.0000     -0.00 LINEAR  8.1788E-02   -176.43  0.0000E+00      0.00
  100.00     28.00      1.75  -999.99     1.75      0.0000     -0.00 LINEAR  8.0856E-02    177.60  0.0000E+00      0.00
  104.00     28.00      1.60  -999.99     1.60      0.0000     -0.00 LINEAR  7.9469E-02    171.63  0.0000E+00      0.00
  108.00     28.00      1.40  -999.99     1.40      0.0000     -0.00 LINEAR  7.7643E-02    165.67  0.0000E+00      0.00
  112.00     28.00      1.14  -999.99     1.14      0.0000     -0.00 LINEAR  7.5397E-02    159.77  0.0000E+00      0.00
  116.00     28.00      0.84  -999.99     0.84      0.0000     -0.00 LINEAR  7.2756E-02    153.95  0.0000E+00      0.00
  120.00     28.00      0.47  -999.99     0.47      0.0000     -0.00 LINEAR  6.9747E-02    148.23  0.0000E+00      0.00
  124.00     28.00      0.04  -999.99     0.04      0.0000     -0.00 LINEAR  6.6399E-02    142.65  0.0000E+00      0.00
  128.00     28.00     -0.45  -999.99    -0.45      0.0000     -0.00 LINEAR  6.2744E-02    137.23  0.0000E+00      0.00
  132.00     28.00     -1.01  -999.99    -1.01      0.0000     -0.00 LINEAR  5.8811E-02    132.00  0.0000E+00      0.00
  136.00     28.00     -1.65  -999.99    -1.65      0.0000     -0.00 LINEAR  5.4634E-02    126.98  0.0000E+00      0.00
  140.00     28.00     -2.38  -999.99    -2.38      0.0000     -0.00 LINEAR  5.0243E-02    122.20  0.0000E+00      0.00
  144.00     28.00     -3.21  -999.99    -3.21      0.0000     -0.00 LINEAR  4.5667E-02    117.68  0.0000E+00      0.00
  148.00     28.00     -4.16  -999.99    -4.16      0.0000     -0.00 LINEAR  4.0934E-02    113.45  0.0000E+00      0.00
  152.00     28.00     -5.26  -999.99    -5.26      0.0000     -0.00 LINEAR  3.6068E-02    109.52  0.0000E+00      0.00
  156.00     28.00     -6.55  -999.99    -6.55      0.0000     -0.00 LINEAR  3.1095E-02    105.91  0.0000E+00      0.00
  160.00     28.00     -8.09  -999.99    -8.09      0.0000     -0.00 LINEAR  2.6034E-02    102.65  0.0000E+00      0.00
  164.00     28.00    -10.00  -999.99   -10.00      0.0000     -0.00 LINEAR  2.0904E-02     99.74  0.0000E+00      0.00
  168.00     28.00    -12.47  -999.99   -12.47      0.0000     -0.00 LINEAR  1.5721E-02     97.20  0.0000E+00      0.00
  172.00     28.00    -15.98  -999.99   -15.98      0.0000     -0.00 LINEAR  1.0501E-02     95.05  0.0000E+00      0.00
  176.00     28.00    -21.99  -999.99   -21.99      0.0000     -0.00 LINEAR  5.2564E-03     93.29  0.0000E+00      0.00
  180.00     28.00   -999.99  -999.99  -999.99      0.0000      0.00         7.6878E-13    -88.06  0.0000E+00      0.00
    0.00     32.00   -999.99  -999.99  -999.99      0.0000      0.00         0.0000E+00      0.00  0.0000E+00      0.00
    4.00     32.00    -22.01  -999.99   -22.01      0.0000     -0.00 LINEAR  5.2461E-03    -99.00  0.0000E+00      0.00
    8.00     32.00    -15.99  -999.99   -15.99      0.0000     -0.00 LINEAR  1.0480E-02    -98.45  0.0000E+00      0.00
   12.00     32.00    -12.49  -999.99   -12.49      0.0000     -0.00 LINEAR  1.5691E-02    -98.31  0.0000E+00      0.00
   16.00     32.00    -10.01  -999.99   -10.01      0.0000     -0.00 LINEAR  2.0864E-02    -98.59  0.0000E+00      0.00
   20.00     32.00     -8.11  -999.99    -8.11      0.0000     -0.00 LINEAR  2.5986E-02    -99.29  0.0000E+00      0.00
   24.00     32.00     -6.56  -999.99    -6.56      0.0000     -0.00 LINEAR  3.1040E-02   -100.41  0.0000E+00      0.00
   28.00     32.00     -5.27  -999.99    -5.27      0.0000     -0.00 LINEAR  3.6007E-02   -101.93  0.0000E+00      0.00
   32.00     32.00     -4.17  -999.99    -4.17      0.0000     -0.00 LINEAR  4.0866E-02   -103.85  0.0000E+00      0.00
   36.00     32.00     -3.22  -999.99    -3.22      0.0000     -0.00 LINEAR  4.5595E-02   -106.16  0.0000E+00      0.00
   40.00     32.00     -2.39  -999.99    -2.39      0.0000     -0.00 LINEAR  5.0169E-02   -108.85  0.0000E+00      0.00
   44.00     32.00     -1.66  -999.99    -1.66      0.0000     -0.00 LINEAR  5.4558E-02   -111.91  0.0000E+00      0.00
   48.00     32.00     -1.02  -999.99    -1.02      0.0000     -0.00 LINEAR  5.8736E-02   -115.32  0.0000E+00      0.00
   52.00     32.00     -0.46  -999.99    -0.46      0.0000     -0.00 LINEAR  6.2669E-02   -119.06  0.0000E+00      0.00
   56.00     32.00      0.03  -999.99     0.03      0.0000     -0.00 LINEAR  6.6328E-02   -123.12  0.0000E+00      0.00
   60.00     32.00      0.46  -999.99     0.46      0.0000     -0.00 LINEAR  6.9680E-02   -127.48  0.0000E+00      0.00
   64.00     32.00      0.83  -999.99     0.83      0.0000     -0.00 LINEAR  7.2695E-02   -132.11  0.0000E+00      0.00
   68.00     32.00      1.14  -999.99     1.14      0.0000     -0.00 LINEAR  7.5343E-02   -136.99  0.0000E+00      0.00
   72.00     32.00      1.39  -999.99     1.39      0.0000     -0.00 LINEAR  7.7597E-02   -142.10  0.0000E+00      0.00
   76.00     32.00      1.60  -999.99     1.60      0.0000     -0.00 LINEAR  7.9433E-02   -147.42  0.0000E+00      0.00
   80.00     32.00      1.75  -999.99     1.75      0.0000     -0.00 LINEAR  8.0830E-02   -152.91  0.0000E+00      0.00
   84.00     32.00      1.85  -999.99     1.85      0.0000     -0.00 LINEAR  8.1772E-02   -158.56  0.0000E+00      0.00
   88.00     32.00      1.90  -999.99     1.90      0.0000     -0.00 LINEAR  8.2249E-02   -164.33  0.0000E+00      0.00
   92.00     32.00      1.90  -999.99     1.90      0.0000     -0.00 LINEAR  8.2254E-02   -170.19  0.0000E+00      0.00
   96.00     32.00      1.85  -999.99     1.85      0.0000     -0.00 LINEAR  8.1788E-02   -176.12  0.0000E+00      0.00
  100.00     32.00      1.75  -999.99     1.75      0.0000     -0.00 LINEAR  8.0856E-02    177.91  0.0000E+00      0.00
  104.00     32.00      1.60  -999.99     1.60      0.0000     -0.00 LINEAR  7.9469E-02    171.93  0.0000E+00      0.00
  108.00     32.00      1.40  -999.99     1.40      0.0000     -0.00 LINEAR  7.7643E-02    165.97  0.0000E+00      0.00
  112.00     32.00      1.14  -999.99     1.14      0.0000     -0.00 LINEAR  7.5397E-02    160.06  0.0000E+00      0.00
  116.00     32.00      0.84  -999.99     0.84      0.0000     -0.00 LINEAR  7.2756E-02    154.23  0.0000E+00      0.00
  120.00     32.00      0.47  -999.99     0.47      0.0000     -0.00 LINEAR  6.9747E-02    148.50  0.0000E+00      0.00
  124.00     32.00      0.04  -999.99     0.04      0.0000     -0.00 LINEAR  6.6399E-02    142.91  0.0000E+00      0.00
  128.00     32.00     -0.45  -999.99    -0.45      0.0000     -0.00 LINEAR  6.2744E-02    137.47  0.0000E+00      0.00
  132.00     32.00     -1.01  -999.99    -1.01      0.0000     -0.00 LINEAR  5.8811E-02    132.23  0.0000E+00      0.00
  136.00     32.00     -1.65  -999.99    -1.65      0.0000     -0.00 LINEAR  5.4634E-02    127.19  0.0000E+00      0.00
  140.00     32.00     -2.38  -999.99    -2.38      0.0000     -0.00 LINEAR  5.0243E-02    122.40  0.0000E+00      0.00
  144.00     32.00     -3.21  -999.99    -3.21      0.0000     -0.00 LINEAR  4.5667E-02    117.86  0.0000E+00      0.00
  148.00     32.00     -4.16  -999.99    -4.16      0.0000     -0.00 LINEAR  4.0934E-02    113.61  0.0000E+00      0.00
  152.00     32.00     -5.26  -999.99    -5.26      0.0000     -0.00 LINEAR  3.6068E-02    109.66  0.0000E+00      0.00
  156.00     32.00     -6.55  -999.99    -6.55      0.0000     -0.00 LINEAR  3.1095E-02    106.04  0.0000E+00      0.00
  160.00     32.00     -8.09  -999.99    -8.09      0.0000     -0.00 LINEAR  2.6034E-02    102.75  0.0000E+00      0.00
  164.00     32.00    -10.00  -999.99   -10.00      0.0000     -0.00 LINEAR  2.0904E-02     99.83  0.0000E+00      0.00
  168.00     32.00    -12.47  -999.99   -12.47      0.0000     -0.00 LINEAR  1.5721E-02     97.27  0.0000E+00      0.00
  172.00     32.00    -15.98  -999.99   -15.98      0.0000     -0.00 LINEAR  1.0501E-02     95.10  0.0000E+00      0.00
  176.00     32.00    -21.99  -999.99   -21.99      0.0000     -0.00 LINEAR  5.2564E-03     93.32  0.0000E+00      0.00
  180.00     32.00   -999.99  -999.99  -999.99      0.0000      0.00         7.6878E-13    -88.06  0.0000E+00      0.00
    0.00     36.00   -999.99  -999.99  -999.99      0.0000      0.00         0.0000E+00      0.00  0.0000E+00      0.00
    4.00     36.00    -22.01  -999.99   -22.01      0.0000     -0.00 LINEAR  5.2461E-03    -98.98  0.0000E+00      0.00
    8.00     36.00    -15.99  -999.99   -15.99      0.0000     -0.00 LINEAR  1.0480E-02    -98.41  0.0000E+00      0.00
   12.00     36.00    -12.49  -999.99   -12.49      0.0000     -0.00 LINEAR  1.5691E-02    -98.26  0.0000E+00      0.00
   16.00     36.00    -10.01  -999.99   -10.01      0.0000     -0.00 LINEAR  2.0864E-02    -98.53  0.0000E+00      0.00
   20.00     36.00     -8.11  -999.99    -8.11      0.0000     -0.00 LINEAR  2.5986E-02    -99.22  0.0000E+00      0.00
   24.00     36.00     -6.56  -999.99    -6.56      0.0000     -0.00 LINEAR  3.1040E-02   -100.31  0.0000E+00      0.00
   28.00     36.00     -5.27  -999.99    -5.27      0.0000     -0.00 LINEAR  3.6007E-02   -101.82  0.0000E+00      0.00
   32.00     36.00     -4.17  -999.99    -4.17      0.0000     -0.00 LINEAR  4.0866E-02   -103.73  0.0000E+00      0.00
   36.00     36.00     -3.22  -999.99    -3.22      0.0000     -0.00 LINEAR  4.5595E-02   -106.03  0.0000E+00      0.00
   40.00     36.00     -2.39  -999.99    -2.39      0.0000     -0.00 LINEAR  5.0169E-02   -108.71  0.0000E+00      0.00
   44.00     36.00     -1.66  -999.99    -1.66      0.0000     -0.00 LINEAR  5.4558E-02   -111.75  0.0000E+00      0.00
   48.00     36.00     -1.02  -999.99    -1.02      0.0000     -0.00 LINEAR  5.8736E-02   -115.15  0.0000E+00      0.00
   52.00     36.00     -0.46  -999.99    -0.46      0.0000     -0.00 LINEAR  6.2669E-02   -118.88  0.0000E+00      0.00
   56.00     36.00      0.03  -999.99     0.03      0.0000     -0.00 LINEAR  6.6328E-02   -122.93  0.0000E+00      0.00
   60.00     36.00      0.46  -999.99     0.46      0.0000     -0.00 LINEAR  6.9680E-02   -127.28  0.0000E+00      0.00
   64.00     36.00      0.83  -999.99     0.83      0.0000     -0.00 LINEAR  7.2695E-02   -131.90  0.0000E+00      0.00
   68.00     36.00      1.14  -999.99     1.14      0.0000     -0.00 LINEAR  7.5343E-02   -136.78  0.0000E+00      0.00
   72.00     36.00      1.39  -999.99     1.39      0.0000     -0.00 LINEAR  7.7597E-02   -141.88  0.0000E+00      0.00
   76.00     36.00      1.60  -999.99     1.60      0.0000     -0.00 LINEAR  7.9433E-02   -147.20  0.0000E+00      0.00
   80.00     36.00      1.75  -999.99     1.75      0.0000     -0.00 LINEAR  8.0830E-02   -152.69  0.0000E+00      0.00
   84.00     36.00      1.85  -999.99     1.85      0.0000     -0.00 LINEAR  8.1772E-02   -158.33  0.0000E+00      0.00
   88.00     36.00      1.90  -999.99     1.90      0.0000     -0.00 LINEAR  8.2249E-02   -164.10  0.0000E+00      0.00
   92.00     36.00      1.90  -999.99     1.90      0.0000     -0.00 LINEAR  8.2254E-02   -169.96  0.0000E+00      0.00
   96.00     36.00      1.85  -999.99     1.85      0.0000     -0.00 LINEAR  8.1788E-02   -175.89  0.0000E+00      0.00
  100.00     36.00      1.75  -999.99     1.75      0.0000     -0.00 LINEAR  8.0856E-02    178.13  0.0000E+00      0.00
  104.00     36.00      1.60  -999.99     1.60      0.0000     -0.00 LINEAR  7.9469E-02    172.15  0.0000E+00      0.00
  108.00     36.00      1.40  -999.99     1.40      0.0000     -0.00 LINEAR  7.7643E-02    166.19  0.0000E+00      0.00
  112.00     36.00      1.14  -999.99     1.14      0.0000     -0.00 LINEAR  7.5397E-02    160.27  0.0000E+00      0.00
  116.00     36.00      0.84  -999.99     0.84      0.0000     -0.00 LINEAR  7.2756E-02    154.43  0.0000E+00      0.00
  120.00     36.00      0.47  -999.99     0.47      0.0000     -0.00 LINEAR  6.9747E-02    148.70  0.0000E+00      0.00
  124.00     36.00      0.04  -999.99     0.04      0.0000     -0.00 LINEAR  6.6399E-02    143.10  0.0000E+00      0.00
  128.00     36.00     -0.45  -999.99    -0.45      0.0000     -0.00 LINEAR  6.2744E-02    137.65  0.0000E+00      0.00
  132.00     36.00     -1.01  -999.99    -1.01      0.0000     -0.00 LINEAR  5.8811E-02    132.40  0.0000E+00      0.00
  136.00     36.00     -1.65  -999.99    -1.65      0.0000     -0.00 LINEAR  5.4634E-02    127.35  0.0000E+00      0.00
  140.00     36.00     -2.38  -999.99    -2.38      0.0000     -0.00 LINEAR  5.0243E-02    122.55  0.0000E+00      0.00
  144.00     36.00     -3.21  -999.99    -3.21      0.0000     -0.00 LINEAR  4.5667E-02    118.00  0.0000E+00      0.00
  148.00     36.00     -4.16  -999.99    -4.16      0.0000     -0.00 LINEAR  4.0934E-02    113.73  0.0000E+00      0.00
  152.00     36.00     -5.26  -999.99    -5.26      0.0000     -0.00 LINEAR  3.6068E-02    109.77  0.0000E+00      0.00
  156.00     36.00     -6.55  -999.99    -6.55      0.0000     -0.00 LINEAR  3.1095E-02    106.13  0.0000E+00      0.00
  160.00     36.00     -8.09  -999.99    -8.09      0.0000     -0.00 LINEAR  2.6034E-02    102.83  0.0000E+00      0.00
  164.00     36.00    -10.00  -999.99   -10.00      0.0000     -0.00 LINEAR  2.0904E-02     99.89  0.0000E+00      0.00
  168.00     36.00    -12.47  -999.99   -12.47      0.0000     -0.00 LINEAR  1.5721E-02     97.32  0.0000E+00      0.00
  172.00     36.00    -15.98  -999.99   -15.98      0.0000     -0.00 LINEAR  1.0501E-02     95.13  0.0000E+00      0.00
  176.00     36.00    -21.99  -999.99   -21.99      0.0000     -0.00 LINEAR  5.2564E-03     93.33  0.0000E+00      0.00
  180.00     36.00   -999.99  -999.99  -999.99      0.0000      0.00         7.6878E-13    -88.06  0.0000E+00      0.00
    0.00     40.00   -999.99  -999.99  -999.99      0.0000      0.00         0.0000E+00      0.00  0.0000E+00      0.00
    4.00     40.00    -22.01  -999.99   -22.01      0.0000     -0.00 LINEAR  5.2461E-03    -98.97  0.0000E+00      0.00
    8.00     40.00    -15.99  -999.99   -15.99      0.0000     -0.00 LINEAR  1.0480E-02    -98.39  0.0000E+00      0.00
   12.00     40.00    -12.49  -999.99   -12.49      0.0000     -0.00 LINEAR  1.5691E-02    -98.23  0.0000E+00      0.00
   16.00     40.00    -10.01  -999.99   -10.01      0.0000     -0.00 LINEAR  2.0864E-02    -98.49  0.0000E+00      0.00
   20.00     40.00     -8.11  -999.99    -8.11      0.0000     -0.00 LINEAR  2.5986E-02    -99.17  0.0000E+00      0.00
   24.00     40.00     -6.56  -999.99    -6.56      0.0000     -0.00 LINEAR  3.1040E-02   -100.25  0.0000E+00      0.00
   28.00     40.00     -5.27  -999.99    -5.27      0.0000     -0.00 LINEAR  3.6007E-02   -101.75  0.0000E+00      0.00
   32.00     40.00     -4.17  -999.99    -4.17      0.0000     -0.00 LINEAR  4.0866E-02   -103.65  0.0000E+00      0.00
   36.00     40.00     -3.22  -999.99    -3.22      0.0000     -0.00 LINEAR  4.5595E-02   -105.94  0.0000E+00      0.00
   40.00     40.00     -2.39  -999.99    -2.39      0.0000     -0.00 LINEAR  5.0169E-02   -108.61  0.0000E+00      0.00
   44.00     40.00     -1.66  -999.99    -1.66      0.0000     -0.00 LINEAR  5.4558E-02   -111.65  0.0000E+00      0.00
   48.00     40.00     -1.02  -999.99    -1.02      0.0000     -0.00 LINEAR  5.8736E-02   -115.04  0.0000E+00      0.00
   52.00     40.00     -0.46  -999.99    -0.46      0.0000     -0.00 LINEAR  6.2669E-02   -118.77  0.0000E+00      0.00
   56.00     40.00      0.03  -999.99     0.03      0.0000     -0.00 LINEAR  6.6328E-02   -122.81  0.0000E+00      0.00
   60.00     40.00      0.46  -999.99     0.46      0.0000     -0.00 LINEAR  6.9680E-02   -127.15  0.0000E+00      0.00
   64.00     40.00      0.83  -999.99     0.83      0.0000     -0.00 LINEAR  7.2695E-02   -131.77  0.0000E+00      0.00
   68.00     40.00      1.14  -999.99     1.14      0.0000     -0.00 LINEAR  7.5343E-02   -136.64  0.0000E+00      0.00
   72.00     40.00      1.39  -999.99     1.39      0.0000     -0.00 LINEAR  7.7597E-02   -141.75  0.0000E+00      0.00
   76.00     40.00      1.60  -999.99     1.60      0.0000     -0.00 LINEAR  7.9433E-02   -147.05  0.0000E+00      0.00
   80.00     40.00      1.75  -999.99     1.75      0.0000     -0.00 LINEAR  8.0830E-02   -152.54  0.0000E+00      0.00
   84.00     40.00      1.85  -999.99     1.85      0.0000     -0.00 LINEAR  8.1772E-02   -158.18  0.0000E+00      0.00
   88.00     40.00      1.90  -999.99     1.90      0.0000     -0.00 LINEAR  8.2249E-02   -163.95  0.0000E+00      0.00
   92.00     40.00      1.90  -999.99     1.90      0.0000     -0.00 LINEAR  8.2254E-02   -169.81  0.0000E+00      0.00
   96.00     40.00      1.85  -999.99     1.85      0.0000     -0.00 LINEAR  8.1788E-02   -175.75  0.0000E+00      0.00
  100.00     40.00      1.75  -999.99     1.75      0.0000     -0.00 LINEAR  8.0856E-02    178.28  0.0000E+00      0.00
  104.00     40.00      1.60  -999.99     1.60      0.0000     -0.00 LINEAR  7.9469E-02    172.29  0.0000E+00      0.00
  108.00     40.00      1.40  -999.99     1.40      0.0000     -0.00 LINEAR  7.7643E-02    166.33  0.0000E+00      0.00
  112.00     40.00      1.14  -999.99     1.14      0.0000     -0.00 LINEAR  7.5397E-02    160.41  0.0000E+00      0.00
  116.00     40.00      0.84  -999.99     0.84      0.0000     -0.00 LINEAR  7.2756E-02    154.56  0.0000E+00      0.00
  120.00     40.00      0.47  -999.99     0.47      0.0000     -0.00 LINEAR  6.9747E-02    148.83  0.0000E+00      0.00
  124.00     40.00      0.04  -999.99     0.04      0.0000     -0.00 LINEAR  6.6399E-02    143.22  0.0000E+00      0.00
  128.00     40.00     -0.45  -999.99    -0.45      0.0000     -0.00 LINEAR  6.2744E-02    137.77  0.0000E+00      0.00
  132.00     40.00     -1.01  -999.99    -1.01      0.0000     -0.00 LINEAR  5.8811E-02    132.51  0.0000E+00      0.00
  136.00     40.00     -1.65  -999.99    -1.65      0.0000     -0.00 LINEAR  5.4634E-02    127.46  0.0000E+00      0.00
  140.00     40.00     -2.38  -999.99    -2.38      0.0000     -0.00 LINEAR  5.0243E-02    122.64  0.0000E+00      0.00
  144.00     40.00     -3.21  -999.99    -3.21      0.0000     -0.00 LINEAR  4.5667E-02    118.09  0.0000E+00      0.00
  148.00     40.00     -4.16  -999.99    -4.16      0.0000     -0.00 LINEAR  4.0934E-02    113.81  0.0000E+00      0.00
  152.00     40.00     -5.26  -999.99    -5.26      0.0000     -0.00 LINEAR  3.6068E-02    109.84  0.0000E+00      0.00
  156.00     40.00     -6.55  -999.99    -6.55      0.0000     -0.00 LINEAR  3.1095E-02    106.19  0.0000E+00      0.00
  160.00     40.00     -8.09  -999.99    -8.09      0.0000     -0.00 LINEAR  2.6034E-02    102.88  0.0000E+00      0.00
  164.00     40.00    -10.00  -999.99   -10.00      0.0000     -0.00 LINEAR  2.0904E-02     99.93  0.0000E+00      0.00
  168.00     40.00    -12.47  -999.99   -12.47      0.0000     -0.00 LINEAR  1.5721E-02     97.35  0.0000E+00      0.00
  172.00     40.00    -15.98  -999.99   -15.98      0.0000     -0.00 LINEAR  1.0501E-02     95.15  0.0000E+00      0.00
  176.00     40.00    -21.99  -999.99   -21.99      0.0000     -0.00 LINEAR  5.2564E-03     93.34  0.0000E+00      0.00
  180.00     40.00   -999.99  -999.99  -999.99      0.0000      0.00         7.6878E-13    -88.06  0.0000E+00      0.00
    0.00     44.00   -999.99  -999.99  -999.99      0.0000      0.00         0.0000E+00      0.00  0.0000E+00      0.00
    4.00     44.00    -22.01  -999.99   -22.01      0.0000     -0.00 LINEAR  5.2461E-03    -98.97  0.0000E+00      0.00
    8.00     44.00    -15.99  -999.99   -15.99      0.0000     -0.00 LINEAR  1.0480E-02    -98.39  0.0000E+00      0.00
   12.00     44.00    -12.49  -999.99   -12.49      0.0000     -0.00 LINEAR  1.5691E-02    -98.22  0.0000E+00      0.00
   16.00     44.00    -10.01  -999.99   -10.01      0.0000     -0.00 LINEAR  2.0864E-02    -98.47  0.0000E+00      0.00
   20.00     44.00     -8.11  -999.99    -8.11      0.0000     -0.00 LINEAR  2.5986E-02    -99.14  0.0000E+00      0.00
   24.00     44.00     -6.56  -999.99    -6.56      0.0000     -0.00 LINEAR  3.1040E-02   -100.23  0.0000E+00      0.00
   28.00     44.00     -5.27  -999.99    -5.27      0.0000     -0.00 LINEAR  3.6007E-02   -101.72  0.0000E+00      0.00
   32.00     44.00     -4.17  -999.99    -4.17      0.0000     -0.00 LINEAR  4.0866E-02   -103.62  0.0000E+00      0.00
   36.00     44.00     -3.22  -999.99    -3.22      0.0000     -0.00 LINEAR  4.5595E-02   -105.90  0.0000E+00      0.00
   40.00     44.00     -2.39  -999.99    -2.39      0.0000     -0.00 LINEAR  5.0169E-02   -108.57  0.0000E+00      0.00
   44.00     44.00     -1.66  -999.99    -1.66      0.0000     -0.00 LINEAR  5.4558E-02   -111.61  0.0000E+00      0.00
   48.00     44.00     -1.02  -999.99    -1.02      0.0000     -0.00 LINEAR  5.8736E-02   -114.99  0.0000E+00      0.00
   52.00     44.00     -0.46  -999.99    -0.46      0.0000     -0.00 LINEAR  6.2669E-02   -118.72  0.0000E+00      0.00
   56.00     44.00      0.03  -999.99     0.03      0.0000     -0.00 LINEAR  6.6328E-02   -122.76  0.0000E+00      0.00
   60.00     44.00      0.46  -999.99     0.46      0.0000     -0.00 LINEAR  6.9680E-02   -127.10  0.0000E+00      0.00
   64.00     44.00      0.83  -999.99     0.83      0.0000     -0.00 LINEAR  7.2695E-02   -131.71  0.0000E+00      0.00
   68.00     44.00      1.14  -999.99     1.14      0.0000     -0.00 LINEAR  7.5343E-02   -136.58  0.0000E+00      0.00
   72.00     44.00      1.39  -999.99     1.39      0.0000     -0.00 LINEAR  7.7597E-02   -141.69  0.0000E+00      0.00
   76.00     44.00      1.60  -999.99     1.60      0.0000     -0.00 LINEAR  7.9433E-02   -146.99  0.0000E+00      0.00
   80.00     44.00      1.75  -999.99     1.75      0.0000     -0.00 LINEAR  8.0830E-02   -152.48  0.0000E+00      0.00
   84.00     44.00      1.85  -999.99     1.85      0.0000     -0.00 LINEAR  8.1772E-02   -158.12  0.0000E+00      0.00
   88.00     44.00      1.90  -999.99     1.90      0.0000     -0.00 LINEAR  8.2249E-02   -163.89  0.0000E+00      0.00
   92.00     44.00      1.90  -999.99     1.90      0.0000     -0.00 LINEAR  8.2254E-02   -169.75  0.0000E+00      0.00
   96.00     44.00      1.85  -999.99     1.85      0.0000     -0.00 LINEAR  8.1788E-02   -175.68  0.0000E+00      0.00
  100.00     44.00      1.75  -999.99     1.75      0.0000     -0.00 LINEAR  8.0856E-02    178.34  0.0000E+00      0.00
  104.00     44.00      1.60  -999.99     1.60      0.0000     -0.00 LINEAR  7.9469E-02    172.36  0.0000E+00      0.00
  108.00     44.00      1.40  -999.99     1.40      0.0000     -0.00 LINEAR  7.7643E-02    166.39  0.0000E+00      0.00
  112.00     44.00      1.14  -999.99     1.14      0.0000     -0.00 LINEAR  7.5397E-02    160.47  0.0000E+00      0.00
  116.00     44.00      0.84  -999.99     0.84      0.0000     -0.00 LINEAR  7.2756E-02    154.62  0.0000E+00      0.00
  120.00     44.00      0.47  -999.99     0.47      0.0000     -0.00 LINEAR  6.9747E-02    148.88  0.0000E+00      0.00
  124.00     44.00      0.04  -999.99     0.04      0.0000     -0.00 LINEAR  6.6399E-02    143.27  0.0000E+00      0.00
  128.00     44.00     -0.45  -999.99    -0.45      0.0000     -0.00 LINEAR  6.2744E-02    137.82  0.0000E+00      0.00
  132.00     44.00     -1.01  -999.99    -1.01      0.0000     -0.00 LINEAR  5.8811E-02    132.55  0.0000E+00      0.00
  136.00     44.00     -1.65  -999.99    -1.65      0.0000     -0.00 LINEAR  5.4634E-02    127.50  0.0000E+00      0.00
  140.00     44.00     -2.38  -999.99    -2.38      0.0000     -0.00 LINEAR  5.0243E-02    122.68  0.0000E+00      0.00
  144.00     44.00     -3.21  -999.99    -3.21      0.0000     -0.00 LINEAR  4.5667E-02    118.12  0.0000E+00      0.00
  148.00     44.00     -4.16  -999.99    -4.16      0.0000     -0.00 LINEAR  4.0934E-02    113.85  0.0000E+00      0.00
  152.00     44.00     -5.26  -999.99    -5.26      0.0000     -0.00 LINEAR  3.6068E-02    109.87  0.0000E+00      0.00
  156.00     44.00     -6.55  -999.99    -6.55      0.0000     -0.00 LINEAR  3.1095E-02    106.22  0.0000E+00      0.00
  160.00     44.00     -8.09  -999.99    -8.09      0.0000     -0.00 LINEAR  2.6034E-02    102.91  0.0000E+00      0.00
  164.00     44.00    -10.00  -999.99   -10.00      0.0000     -0.00 LINEAR  2.0904E-02     99.95  0.0000E+00      0.00
  168.00     44.00    -12.47  -999.99   -12.47      0.0000     -0.00 LINEAR  1.5721E-02     97.36  0.0000E+00      0.00
  172.00     44.00    -15.98  -999.99   -15.98      0.0000     -0.00 LINEAR  1.0501E-02     95.16  0.0000E+00      0.00
  176.00     44.00    -21.99  -999.99   -21.99      0.0000     -0.00 LINEAR  5.2564E-03     93.35  0.0000E+00      0.00
  180.00     44.00   -999.99  -999.99  -999.99      0.0000      0.00         7.6878E-13    -88.06  0.0000E+00      0.00
    0.00     48.00   -999.99  -999.99  -999.99      0.0000      0.00         0.0000E+00      0.00  0.0000E+00      0.00
    4.00     48.00    -22.01  -999.99   -22.01      0.0000     -0.00 LINEAR  5.2461E-03    -98.97  0.0000E+00      0.00
    8.00     48.00    -15.99  -999.99   -15.99      0.0000     -0.00 LINEAR  1.0480E-02    -98.39  0.0000E+00      0.00
   12.00     48.00    -12.49  -999.99   -12.49      0.0000     -0.00 LINEAR  1.5691E-02    -98.22  0.0000E+00      0.00
   16.00     48.00    -10.01  -999.99   -10.01      0.0000     -0.00 LINEAR  2.0864E-02    -98.48  0.0000E+00      0.00
   20.00     48.00     -8.11  -999.99    -8.11      0.0000     -0.00 LINEAR  2.5986E-02    -99.15  0.0000E+00      0.00
   24.00     48.00     -6.56  -999.99    -6.56      0.0000     -0.00 LINEAR  3.1040E-02   -100.24  0.0000E+00      0.00
   28.00     48.00     -5.27  -999.99    -5.27      0.0000     -0.00 LINEAR  3.6007E-02   -101.73  0.0000E+00      0.00
   32.00     48.00     -4.17  -999.99    -4.17      0.0000     -0.00 LINEAR  4.0866E-02   -103.63  0.0000E+00      0.00
   36.00     48.00     -3.22  -999.99    -3.22      0.0000     -0.00 LINEAR  4.5595E-02   -105.92  0.0000E+00      0.00
   40.00     48.00     -2.39  -999.99    -2.39      0.0000     -0.00 LINEAR  5.0169E-02   -108.58  0.0000E+00      0.00
   44.00     48.00     -1.66  -999.99    -1.66      0.0000     -0.00 LINEAR  5.4558E-02   -111.62  0.0000E+00      0.00
   48.00     48.00     -1.02  -999.99    -1.02      0.0000     -0.00 LINEAR  5.8736E-02   -115.01  0.0000E+00      0.00
   52.00     48.00     -0.46  -999.99    -0.46      0.0000     -0.00 LINEAR  6.2669E-02   -118.73  0.0000E+00      0.00
   56.00     48.00      0.03  -999.99     0.03      0.0000     -0.00 LINEAR  6.6328E-02   -122.77  0.0000E+00      0.00
   60.00     48.00      0.46  -999.99     0.46      0.0000     -0.00 LINEAR  6.9680E-02   -127.11  0.0000E+00      0.00
   64.00     48.00      0.83  -999.99     0.83      0.0000     -0.00 LINEAR  7.2695E-02   -131.73  0.0000E+00      0.00
   68.00     48.00      1.14  -999.99     1.14      0.0000     -0.00 LINEAR  7.5343E-02   -136.60  0.0000E+00      0.00
   72.00     48.00      1.39  -999.99     1.39      0.0000     -0.00 LINEAR  7.7597E-02   -141.71  0.0000E+00      0.00
   76.00     48.00      1.60  -999.99     1.60      0.0000     -0.00 LINEAR  7.9433E-02   -147.01  0.0000E+00      0.00
   80.00     48.00      1.75  -999.99     1.75      0.0000     -0.00 LINEAR  8.0830E-02   -152.50  0.0000E+00      0.00
   84.00     48.00      1.85  -999.99     1.85      0.0000     -0.00 LINEAR  8.1772E-02   -158.14  0.0000E+00      0.00
   88.00     48.00      1.90  -999.99     1.90      0.0000     -0.00 LINEAR  8.2249E-02   -163.91  0.0000E+00      0.00
   92.00     48.00      1.90  -999.99     1.90      0.0000     -0.00 LINEAR  8.2254E-02   -169.77  0.0000E+00      0.00
   96.00     48.00      1.85  -999.99     1.85      0.0000     -0.00 LINEAR  8.1788E-02   -175.71  0.0000E+00      0.00
  100.00     48.00      1.75  -999.99     1.75      0.0000     -0.00 LINEAR  8.0856E-02    178.32  0.0000E+00      0.00
  104.00     48.00      1.60  -999.99     1.60      0.0000     -0.00 LINEAR  7.9469E-02    172.34  0.0000E+00      0.00
  108.00     48.00      1.40  -999.99     1.40      0.0000     -0.00 LINEAR  7.7643E-02    166.37  0.0000E+00      0.00
  112.00     48.00      1.14  -999.99     1.14      0.0000     -0.00 LINEAR  7.5397E-02    160.45  0.0000E+00      0.00
  116.00     48.00      0.84  -999.99     0.84      0.0000     -0.00 LINEAR  7.2756E-02    154.60  0.0000E+00      0.00
  120.00     48.00      0.47  -999.99     0.47      0.0000     -0.00 LINEAR  6.9747E-02    148.86  0.0000E+00      0.00
  124.00     48.00      0.04  -999.99     0.04      0.0000     -0.00 LINEAR  6.6399E-02    143.25  0.0000E+00      0.00
  128.00     48.00     -0.45  -999.99    -0.45      0.0000     -0.00 LINEAR  6.2744E-02    137.80  0.0000E+00      0.00
  132.00     48.00     -1.01  -999.99    -1.01      0.0000     -0.00 LINEAR  5.8811E-02    132.54  0.0000E+00      0.00
  136.00     48.00     -1.65  -999.99    -1.65      0.0000     -0.00 LINEAR  5.4634E-02    127.48  0.0000E+00      0.00
  140.00     48.00     -2.38  -999.99    -2.38      0.0000     -0.00 LINEAR  5.0243E-02    122.67  0.0000E+00      0.00
  144.00     48.00     -3.21  -999.99    -3.21      0.0000     -0.00 LINEAR  4.5667E-02    118.11  0.0000E+00      0.00
  148.00     48.00     -4.16  -999.99    -4.16      0.0000     -0.00 LINEAR  4.0934E-02    113.83  0.0000E+00      0.00
  152.00     48.00     -5.26  -999.99    -5.26      0.0000     -0.00 LINEAR  3.6068E-02    109.86  0.0000E+00      0.00
  156.00     48.00     -6.55  -999.99    -6.55      0.0000     -0.00 LINEAR  3.1095E-02    106.21  0.0000E+00      0.00
  160.00     48.00     -8.09  -999.99    -8.09      0.0000     -0.00 LINEAR  2.6034E-02    102.90  0.0000E+00      0.00
  164.00     48.00    -10.00  -999.99   -10.00      0.0000     -0.00 LINEAR  2.0904E-02     99.94  0.0000E+00      0.00
  168.00     48.00    -12.47  -999.99   -12.47      0.0000     -0.00 LINEAR  1.5721E-02     97.36  0.0000E+00      0.00
  172.00     48.00    -15.98  -999.99   -15.98      0.0000     -0.00 LINEAR  1.0501E-02     95.15  0.0000E+00      0.00
[...]
   76.00    344.00      1.60  -999.99     1.60      0.0000     -0.00 LINEAR  7.9433E-02   -155.61  0.0000E+00      0.00
   80.00    344.00      1.75  -999.99     1.75      0.0000     -0.00 LINEAR  8.0830E-02   -161.23  0.0000E+00      0.00
   84.00    344.00      1.85  -999.99     1.85      0.0000     -0.00 LINEAR  8.1772E-02   -166.96  0.0000E+00      0.00
   88.00    344.00      1.90  -999.99     1.90      0.0000     -0.00 LINEAR  8.2249E-02   -172.77  0.0000E+00      0.00
   92.00    344.00      1.90  -999.99     1.90      0.0000     -0.00 LINEAR  8.2254E-02   -178.63  0.0000E+00      0.00
   96.00    344.00      1.85  -999.99     1.85      0.0000     -0.00 LINEAR  8.1788E-02    175.48  0.0000E+00      0.00
  100.00    344.00      1.75  -999.99     1.75      0.0000     -0.00 LINEAR  8.0856E-02    169.59  0.0000E+00      0.00
  104.00    344.00      1.60  -999.99     1.60      0.0000     -0.00 LINEAR  7.9469E-02    163.73  0.0000E+00      0.00
  108.00    344.00      1.40  -999.99     1.40      0.0000     -0.00 LINEAR  7.7643E-02    157.94  0.0000E+00      0.00
  112.00    344.00      1.14  -999.99     1.14      0.0000     -0.00 LINEAR  7.5397E-02    152.23  0.0000E+00      0.00
  116.00    344.00      0.84  -999.99     0.84      0.0000     -0.00 LINEAR  7.2756E-02    146.63  0.0000E+00      0.00
  120.00    344.00      0.47  -999.99     0.47      0.0000     -0.00 LINEAR  6.9747E-02    141.18  0.0000E+00      0.00
  124.00    344.00      0.04  -999.99     0.04      0.0000     -0.00 LINEAR  6.6399E-02    135.90  0.0000E+00      0.00
  128.00    344.00     -0.45  -999.99    -0.45      0.0000     -0.00 LINEAR  6.2744E-02    130.82  0.0000E+00      0.00
  132.00    344.00     -1.01  -999.99    -1.01      0.0000     -0.00 LINEAR  5.8811E-02    125.95  0.0000E+00      0.00
  136.00    344.00     -1.65  -999.99    -1.65      0.0000     -0.00 LINEAR  5.4634E-02    121.33  0.0000E+00      0.00
  140.00    344.00     -2.38  -999.99    -2.38      0.0000     -0.00 LINEAR  5.0243E-02    116.97  0.0000E+00      0.00
  144.00    344.00     -3.21  -999.99    -3.21      0.0000     -0.00 LINEAR  4.5667E-02    112.90  0.0000E+00      0.00
  148.00    344.00     -4.16  -999.99    -4.16      0.0000     -0.00 LINEAR  4.0934E-02    109.14  0.0000E+00      0.00
  152.00    344.00     -5.26  -999.99    -5.26      0.0000     -0.00 LINEAR  3.6068E-02    105.70  0.0000E+00      0.00
  156.00    344.00     -6.55  -999.99    -6.55      0.0000     -0.00 LINEAR  3.1095E-02    102.60  0.0000E+00      0.00
  160.00    344.00     -8.09  -999.99    -8.09      0.0000     -0.00 LINEAR  2.6034E-02     99.87  0.0000E+00      0.00
  164.00    344.00    -10.00  -999.99   -10.00      0.0000     -0.00 LINEAR  2.0904E-02     97.50  0.0000E+00      0.00
  168.00    344.00    -12.47  -999.99   -12.47      0.0000     -0.00 LINEAR  1.5721E-02     95.51  0.0000E+00      0.00
  172.00    344.00    -15.98  -999.99   -15.98      0.0000     -0.00 LINEAR  1.0501E-02     93.92  0.0000E+00      0.00
  176.00    344.00    -21.99  -999.99   -21.99      0.0000     -0.00 LINEAR  5.2564E-03     92.73  0.0000E+00      0.00
  180.00    344.00   -999.99  -999.99  -999.99      0.0000      0.00         7.6878E-13    -88.06  0.0000E+00      0.00
    0.00    348.00   -999.99  -999.99  -999.99      0.0000      0.00         0.0000E+00      0.00  0.0000E+00      0.00
    4.00    348.00    -22.01  -999.99   -22.01      0.0000     -0.00 LINEAR  5.2461E-03    -99.52  0.0000E+00      0.00
    8.00    348.00    -15.99  -999.99   -15.99      0.0000     -0.00 LINEAR  1.0480E-02    -99.48  0.0000E+00      0.00
   12.00    348.00    -12.49  -999.99   -12.49      0.0000     -0.00 LINEAR  1.5691E-02    -99.85  0.0000E+00      0.00
   16.00    348.00    -10.01  -999.99   -10.01      0.0000     -0.00 LINEAR  2.0864E-02   -100.64  0.0000E+00      0.00
   20.00    348.00     -8.11  -999.99    -8.11      0.0000     -0.00 LINEAR  2.5986E-02   -101.83  0.0000E+00      0.00
   24.00    348.00     -6.56  -999.99    -6.56      0.0000     -0.00 LINEAR  3.1040E-02   -103.42  0.0000E+00      0.00
   28.00    348.00     -5.27  -999.99    -5.27      0.0000     -0.00 LINEAR  3.6007E-02   -105.41  0.0000E+00      0.00
   32.00    348.00     -4.17  -999.99    -4.17      0.0000     -0.00 LINEAR  4.0866E-02   -107.78  0.0000E+00      0.00
   36.00    348.00     -3.22  -999.99    -3.22      0.0000     -0.00 LINEAR  4.5595E-02   -110.52  0.0000E+00      0.00
   40.00    348.00     -2.39  -999.99    -2.39      0.0000     -0.00 LINEAR  5.0169E-02   -113.62  0.0000E+00      0.00
   44.00    348.00     -1.66  -999.99    -1.66      0.0000     -0.00 LINEAR  5.4558E-02   -117.06  0.0000E+00      0.00
   48.00    348.00     -1.02  -999.99    -1.02      0.0000     -0.00 LINEAR  5.8736E-02   -120.83  0.0000E+00      0.00
   52.00    348.00     -0.46  -999.99    -0.46      0.0000     -0.00 LINEAR  6.2669E-02   -124.91  0.0000E+00      0.00
   56.00    348.00      0.03  -999.99     0.03      0.0000     -0.00 LINEAR  6.6328E-02   -129.27  0.0000E+00      0.00
   60.00    348.00      0.46  -999.99     0.46      0.0000     -0.00 LINEAR  6.9680E-02   -133.90  0.0000E+00      0.00
   64.00    348.00      0.83  -999.99     0.83      0.0000     -0.00 LINEAR  7.2695E-02   -138.77  0.0000E+00      0.00
   68.00    348.00      1.14  -999.99     1.14      0.0000     -0.00 LINEAR  7.5343E-02   -143.87  0.0000E+00      0.00
   72.00    348.00      1.39  -999.99     1.39      0.0000     -0.00 LINEAR  7.7597E-02   -149.15  0.0000E+00      0.00
   76.00    348.00      1.60  -999.99     1.60      0.0000     -0.00 LINEAR  7.9433E-02   -154.61  0.0000E+00      0.00
   80.00    348.00      1.75  -999.99     1.75      0.0000     -0.00 LINEAR  8.0830E-02   -160.21  0.0000E+00      0.00
   84.00    348.00      1.85  -999.99     1.85      0.0000     -0.00 LINEAR  8.1772E-02   -165.93  0.0000E+00      0.00
   88.00    348.00      1.90  -999.99     1.90      0.0000     -0.00 LINEAR  8.2249E-02   -171.74  0.0000E+00      0.00
   92.00    348.00      1.90  -999.99     1.90      0.0000     -0.00 LINEAR  8.2254E-02   -177.60  0.0000E+00      0.00
   96.00    348.00      1.85  -999.99     1.85      0.0000     -0.00 LINEAR  8.1788E-02    176.50  0.0000E+00      0.00
  100.00    348.00      1.75  -999.99     1.75      0.0000     -0.00 LINEAR  8.0856E-02    170.61  0.0000E+00      0.00
  104.00    348.00      1.60  -999.99     1.60      0.0000     -0.00 LINEAR  7.9469E-02    164.74  0.0000E+00      0.00
  108.00    348.00      1.40  -999.99     1.40      0.0000     -0.00 LINEAR  7.7643E-02    158.92  0.0000E+00      0.00
  112.00    348.00      1.14  -999.99     1.14      0.0000     -0.00 LINEAR  7.5397E-02    153.18  0.0000E+00      0.00
  116.00    348.00      0.84  -999.99     0.84      0.0000     -0.00 LINEAR  7.2756E-02    147.56  0.0000E+00      0.00
  120.00    348.00      0.47  -999.99     0.47      0.0000     -0.00 LINEAR  6.9747E-02    142.08  0.0000E+00      0.00
  124.00    348.00      0.04  -999.99     0.04      0.0000     -0.00 LINEAR  6.6399E-02    136.76  0.0000E+00      0.00
  128.00    348.00     -0.45  -999.99    -0.45      0.0000     -0.00 LINEAR  6.2744E-02    131.63  0.0000E+00      0.00
  132.00    348.00     -1.01  -999.99    -1.01      0.0000     -0.00 LINEAR  5.8811E-02    126.72  0.0000E+00      0.00
  136.00    348.00     -1.65  -999.99    -1.65      0.0000     -0.00 LINEAR  5.4634E-02    122.04  0.0000E+00      0.00
  140.00    348.00     -2.38  -999.99    -2.38      0.0000     -0.00 LINEAR  5.0243E-02    117.63  0.0000E+00      0.00
  144.00    348.00     -3.21  -999.99    -3.21      0.0000     -0.00 LINEAR  4.5667E-02    113.51  0.0000E+00      0.00
  148.00    348.00     -4.16  -999.99    -4.16      0.0000     -0.00 LINEAR  4.0934E-02    109.68  0.0000E+00      0.00
  152.00    348.00     -5.26  -999.99    -5.26      0.0000     -0.00 LINEAR  3.6068E-02    106.18  0.0000E+00      0.00
  156.00    348.00     -6.55  -999.99    -6.55      0.0000     -0.00 LINEAR  3.1095E-02    103.02  0.0000E+00      0.00
  160.00    348.00     -8.09  -999.99    -8.09      0.0000     -0.00 LINEAR  2.6034E-02    100.22  0.0000E+00      0.00
  164.00    348.00    -10.00  -999.99   -10.00      0.0000     -0.00 LINEAR  2.0904E-02     97.78  0.0000E+00      0.00
  168.00    348.00    -12.47  -999.99   -12.47      0.0000     -0.00 LINEAR  1.5721E-02     95.73  0.0000E+00      0.00
  172.00    348.00    -15.98  -999.99   -15.98      0.0000     -0.00 LINEAR  1.0501E-02     94.06  0.0000E+00      0.00
  176.00    348.00    -21.99  -999.99   -21.99      0.0000     -0.00 LINEAR  5.2564E-03     92.80  0.0000E+00      0.00
  180.00    348.00   -999.99  -999.99  -999.99      0.0000      0.00         7.6878E-13    -88.06  0.0000E+00      0.00
    0.00    352.00   -999.99  -999.99  -999.99      0.0000      0.00         0.0000E+00      0.00  0.0000E+00      0.00
    4.00    352.00    -22.01  -999.99   -22.01      0.0000     -0.00 LINEAR  5.2461E-03    -99.45  0.0000E+00      0.00
    8.00    352.00    -15.99  -999.99   -15.99      0.0000     -0.00 LINEAR  1.0480E-02    -99.34  0.0000E+00      0.00
   12.00    352.00    -12.49  -999.99   -12.49      0.0000     -0.00 LINEAR  1.5691E-02    -99.65  0.0000E+00      0.00
   16.00    352.00    -10.01  -999.99   -10.01      0.0000     -0.00 LINEAR  2.0864E-02   -100.37  0.0000E+00      0.00
   20.00    352.00     -8.11  -999.99    -8.11      0.0000     -0.00 LINEAR  2.5986E-02   -101.49  0.0000E+00      0.00
   24.00    352.00     -6.56  -999.99    -6.56      0.0000     -0.00 LINEAR  3.1040E-02   -103.02  0.0000E+00      0.00
   28.00    352.00     -5.27  -999.99    -5.27      0.0000     -0.00 LINEAR  3.6007E-02   -104.95  0.0000E+00      0.00
   32.00    352.00     -4.17  -999.99    -4.17      0.0000     -0.00 LINEAR  4.0866E-02   -107.26  0.0000E+00      0.00
   36.00    352.00     -3.22  -999.99    -3.22      0.0000     -0.00 LINEAR  4.5595E-02   -109.94  0.0000E+00      0.00
   40.00    352.00     -2.39  -999.99    -2.39      0.0000     -0.00 LINEAR  5.0169E-02   -112.98  0.0000E+00      0.00
   44.00    352.00     -1.66  -999.99    -1.66      0.0000     -0.00 LINEAR  5.4558E-02   -116.38  0.0000E+00      0.00
   48.00    352.00     -1.02  -999.99    -1.02      0.0000     -0.00 LINEAR  5.8736E-02   -120.10  0.0000E+00      0.00
   52.00    352.00     -0.46  -999.99    -0.46      0.0000     -0.00 LINEAR  6.2669E-02   -124.13  0.0000E+00      0.00
   56.00    352.00      0.03  -999.99     0.03      0.0000     -0.00 LINEAR  6.6328E-02   -128.45  0.0000E+00      0.00
   60.00    352.00      0.46  -999.99     0.46      0.0000     -0.00 LINEAR  6.9680E-02   -133.04  0.0000E+00      0.00
   64.00    352.00      0.83  -999.99     0.83      0.0000     -0.00 LINEAR  7.2695E-02   -137.89  0.0000E+00      0.00
   68.00    352.00      1.14  -999.99     1.14      0.0000     -0.00 LINEAR  7.5343E-02   -142.95  0.0000E+00      0.00
   72.00    352.00      1.39  -999.99     1.39      0.0000     -0.00 LINEAR  7.7597E-02   -148.22  0.0000E+00      0.00
   76.00    352.00      1.60  -999.99     1.60      0.0000     -0.00 LINEAR  7.9433E-02   -153.66  0.0000E+00      0.00
   80.00    352.00      1.75  -999.99     1.75      0.0000     -0.00 LINEAR  8.0830E-02   -159.24  0.0000E+00      0.00
   84.00    352.00      1.85  -999.99     1.85      0.0000     -0.00 LINEAR  8.1772E-02   -164.95  0.0000E+00      0.00
   88.00    352.00      1.90  -999.99     1.90      0.0000     -0.00 LINEAR  8.2249E-02   -170.75  0.0000E+00      0.00
   92.00    352.00      1.90  -999.99     1.90      0.0000     -0.00 LINEAR  8.2254E-02   -176.61  0.0000E+00      0.00
   96.00    352.00      1.85  -999.99     1.85      0.0000     -0.00 LINEAR  8.1788E-02    177.49  0.0000E+00      0.00
  100.00    352.00      1.75  -999.99     1.75      0.0000     -0.00 LINEAR  8.0856E-02    171.58  0.0000E+00      0.00
  104.00    352.00      1.60  -999.99     1.60      0.0000     -0.00 LINEAR  7.9469E-02    165.69  0.0000E+00      0.00
  108.00    352.00      1.40  -999.99     1.40      0.0000     -0.00 LINEAR  7.7643E-02    159.86  0.0000E+00      0.00
  112.00    352.00      1.14  -999.99     1.14      0.0000     -0.00 LINEAR  7.5397E-02    154.10  0.0000E+00      0.00
  116.00    352.00      0.84  -999.99     0.84      0.0000     -0.00 LINEAR  7.2756E-02    148.45  0.0000E+00      0.00
  120.00    352.00      0.47  -999.99     0.47      0.0000     -0.00 LINEAR  6.9747E-02    142.93  0.0000E+00      0.00
  124.00    352.00      0.04  -999.99     0.04      0.0000     -0.00 LINEAR  6.6399E-02    137.58  0.0000E+00      0.00
  128.00    352.00     -0.45  -999.99    -0.45      0.0000     -0.00 LINEAR  6.2744E-02    132.41  0.0000E+00      0.00
  132.00    352.00     -1.01  -999.99    -1.01      0.0000     -0.00 LINEAR  5.8811E-02    127.45  0.0000E+00      0.00
  136.00    352.00     -1.65  -999.99    -1.65      0.0000     -0.00 LINEAR  5.4634E-02    122.73  0.0000E+00      0.00
  140.00    352.00     -2.38  -999.99    -2.38      0.0000     -0.00 LINEAR  5.0243E-02    118.27  0.0000E+00      0.00
  144.00    352.00     -3.21  -999.99    -3.21      0.0000     -0.00 LINEAR  4.5667E-02    114.09  0.0000E+00      0.00
  148.00    352.00     -4.16  -999.99    -4.16      0.0000     -0.00 LINEAR  4.0934E-02    110.21  0.0000E+00      0.00
  152.00    352.00     -5.26  -999.99    -5.26      0.0000     -0.00 LINEAR  3.6068E-02    106.65  0.0000E+00      0.00
  156.00    352.00     -6.55  -999.99    -6.55      0.0000     -0.00 LINEAR  3.1095E-02    103.43  0.0000E+00      0.00
  160.00    352.00     -8.09  -999.99    -8.09      0.0000     -0.00 LINEAR  2.6034E-02    100.56  0.0000E+00      0.00
  164.00    352.00    -10.00  -999.99   -10.00      0.0000     -0.00 LINEAR  2.0904E-02     98.05  0.0000E+00      0.00
  168.00    352.00    -12.47  -999.99   -12.47      0.0000     -0.00 LINEAR  1.5721E-02     95.93  0.0000E+00      0.00
  172.00    352.00    -15.98  -999.99   -15.98      0.0000     -0.00 LINEAR  1.0501E-02     94.20  0.0000E+00      0.00
  176.00    352.00    -21.99  -999.99   -21.99      0.0000     -0.00 LINEAR  5.2564E-03     92.87  0.0000E+00      0.00
  180.00    352.00   -999.99  -999.99  -999.99      0.0000      0.00         7.6878E-13    -88.06  0.0000E+00      0.00
    0.00    356.00   -999.99  -999.99  -999.99      0.0000      0.00         0.0000E+00      0.00  0.0000E+00      0.00
    4.00    356.00    -22.01  -999.99   -22.01      0.0000     -0.00 LINEAR  5.2461E-03    -99.38  0.0000E+00      0.00
    8.00    356.00    -15.99  -999.99   -15.99      0.0000     -0.00 LINEAR  1.0480E-02    -99.21  0.0000E+00      0.00
   12.00    356.00    -12.49  -999.99   -12.49      0.0000     -0.00 LINEAR  1.5691E-02    -99.45  0.0000E+00      0.00
   16.00    356.00    -10.01  -999.99   -10.01      0.0000     -0.00 LINEAR  2.0864E-02   -100.11  0.0000E+00      0.00
   20.00    356.00     -8.11  -999.99    -8.11      0.0000     -0.00 LINEAR  2.5986E-02   -101.17  0.0000E+00      0.00
   24.00    356.00     -6.56  -999.99    -6.56      0.0000     -0.00 LINEAR  3.1040E-02   -102.64  0.0000E+00      0.00
   28.00    356.00     -5.27  -999.99    -5.27      0.0000     -0.00 LINEAR  3.6007E-02   -104.51  0.0000E+00      0.00
   32.00    356.00     -4.17  -999.99    -4.17      0.0000     -0.00 LINEAR  4.0866E-02   -106.76  0.0000E+00      0.00
   36.00    356.00     -3.22  -999.99    -3.22      0.0000     -0.00 LINEAR  4.5595E-02   -109.39  0.0000E+00      0.00
   40.00    356.00     -2.39  -999.99    -2.39      0.0000     -0.00 LINEAR  5.0169E-02   -112.38  0.0000E+00      0.00
   44.00    356.00     -1.66  -999.99    -1.66      0.0000     -0.00 LINEAR  5.4558E-02   -115.73  0.0000E+00      0.00
   48.00    356.00     -1.02  -999.99    -1.02      0.0000     -0.00 LINEAR  5.8736E-02   -119.40  0.0000E+00      0.00
   52.00    356.00     -0.46  -999.99    -0.46      0.0000     -0.00 LINEAR  6.2669E-02   -123.39  0.0000E+00      0.00
   56.00    356.00      0.03  -999.99     0.03      0.0000     -0.00 LINEAR  6.6328E-02   -127.67  0.0000E+00      0.00
   60.00    356.00      0.46  -999.99     0.46      0.0000     -0.00 LINEAR  6.9680E-02   -132.23  0.0000E+00      0.00
   64.00    356.00      0.83  -999.99     0.83      0.0000     -0.00 LINEAR  7.2695E-02   -137.04  0.0000E+00      0.00
   68.00    356.00      1.14  -999.99     1.14      0.0000     -0.00 LINEAR  7.5343E-02   -142.08  0.0000E+00      0.00
   72.00    356.00      1.39  -999.99     1.39      0.0000     -0.00 LINEAR  7.7597E-02   -147.33  0.0000E+00      0.00
   76.00    356.00      1.60  -999.99     1.60      0.0000     -0.00 LINEAR  7.9433E-02   -152.75  0.0000E+00      0.00
   80.00    356.00      1.75  -999.99     1.75      0.0000     -0.00 LINEAR  8.0830E-02   -158.32  0.0000E+00      0.00
   84.00    356.00      1.85  -999.99     1.85      0.0000     -0.00 LINEAR  8.1772E-02   -164.02  0.0000E+00      0.00
   88.00    356.00      1.90  -999.99     1.90      0.0000     -0.00 LINEAR  8.2249E-02   -169.81  0.0000E+00      0.00
   92.00    356.00      1.90  -999.99     1.90      0.0000     -0.00 LINEAR  8.2254E-02   -175.68  0.0000E+00      0.00
   96.00    356.00      1.85  -999.99     1.85      0.0000     -0.00 LINEAR  8.1788E-02    178.42  0.0000E+00      0.00
  100.00    356.00      1.75  -999.99     1.75      0.0000     -0.00 LINEAR  8.0856E-02    172.50  0.0000E+00      0.00
  104.00    356.00      1.60  -999.99     1.60      0.0000     -0.00 LINEAR  7.9469E-02    166.60  0.0000E+00      0.00
  108.00    356.00      1.40  -999.99     1.40      0.0000     -0.00 LINEAR  7.7643E-02    160.75  0.0000E+00      0.00
  112.00    356.00      1.14  -999.99     1.14      0.0000     -0.00 LINEAR  7.5397E-02    154.97  0.0000E+00      0.00
  116.00    356.00      0.84  -999.99     0.84      0.0000     -0.00 LINEAR  7.2756E-02    149.29  0.0000E+00      0.00
  120.00    356.00      0.47  -999.99     0.47      0.0000     -0.00 LINEAR  6.9747E-02    143.74  0.0000E+00      0.00
  124.00    356.00      0.04  -999.99     0.04      0.0000     -0.00 LINEAR  6.6399E-02    138.35  0.0000E+00      0.00
  128.00    356.00     -0.45  -999.99    -0.45      0.0000     -0.00 LINEAR  6.2744E-02    133.14  0.0000E+00      0.00
  132.00    356.00     -1.01  -999.99    -1.01      0.0000     -0.00 LINEAR  5.8811E-02    128.15  0.0000E+00      0.00
  136.00    356.00     -1.65  -999.99    -1.65      0.0000     -0.00 LINEAR  5.4634E-02    123.38  0.0000E+00      0.00
  140.00    356.00     -2.38  -999.99    -2.38      0.0000     -0.00 LINEAR  5.0243E-02    118.87  0.0000E+00      0.00
  144.00    356.00     -3.21  -999.99    -3.21      0.0000     -0.00 LINEAR  4.5667E-02    114.64  0.0000E+00      0.00
  148.00    356.00     -4.16  -999.99    -4.16      0.0000     -0.00 LINEAR  4.0934E-02    110.70  0.0000E+00      0.00
  152.00    356.00     -5.26  -999.99    -5.26      0.0000     -0.00 LINEAR  3.6068E-02    107.09  0.0000E+00      0.00
  156.00    356.00     -6.55  -999.99    -6.55      0.0000     -0.00 LINEAR  3.1095E-02    103.81  0.0000E+00      0.00
  160.00    356.00     -8.09  -999.99    -8.09      0.0000     -0.00 LINEAR  2.6034E-02    100.88  0.0000E+00      0.00
  164.00    356.00    -10.00  -999.99   -10.00      0.0000     -0.00 LINEAR  2.0904E-02     98.31  0.0000E+00      0.00
  168.00    356.00    -12.47  -999.99   -12.47      0.0000     -0.00 LINEAR  1.5721E-02     96.13  0.0000E+00      0.00
  172.00    356.00    -15.98  -999.99   -15.98      0.0000     -0.00 LINEAR  1.0501E-02     94.33  0.0000E+00      0.00
  176.00    356.00    -21.99  -999.99   -21.99      0.0000     -0.00 LINEAR  5.2564E-03     92.93  0.0000E+00      0.00
  180.00    356.00   -999.99  -999.99  -999.99      0.0000      0.00         7.6878E-13    -88.06  0.0000E+00      0.00








*****  DATA CARD N0.   5 EN   0     0     0     0  0.00000E+00  0.00000E+00  0.00000E+00  0.00000E+00  0.00000E+00  0.00000E+00

  TOTAL RUN TIME: 50 msec