


                                __________________________________________
                               |                                          |
                               | NUMERICAL ELECTROMAGNETICS CODE (nec2++) |
                               | Translated to 'C++' in Double Precision  |
                               |        Version 1.5.1 [2014-01-02]        |
                               |__________________________________________|



                                -------- STRUCTURE SPECIFICATION --------
                                COORDINATES MUST BE INPUT IN
                                METERS OR BE SCALED TO METERS
                                BEFORE STRUCTURE INPUT IS ENDED
  WIRE                                                                                 SEG FIRST  LAST  TAG
   No:        X1         Y1         Z1         X2         Y2         Z2       RADIUS   No:   SEG   SEG  No:

     1     -0.6096     0.6096     0.2500    -0.6096     0.6096     0.4800     0.0010     8     1     8    1
     2     -0.6096     0.6096     0.0200    -0.6096     0.6096     0.2500     0.0010     8     9    16    2
     STRUCTURE SCALED BY FACTOR:    1.00000

     TOTAL SEGMENTS USED: 16   SEGMENTS IN A SYMMETRIC CELL: 16   SYMMETRY FLAG: 0


                               ---------- SEGMENTATION DATA ----------
                                        COORDINATES IN METERS
                            I+ AND I- INDICATE THE SEGMENTS BEFORE AND AFTER I

   SEG    COORDINATES OF SEGM CENTER     SEGM    ORIENTATION ANGLES    WIRE    CONNECTION DATA   TAG
   No:       X         Y         Z      LENGTH     ALPHA      BETA    RADIUS    I-     I    I+   NO:
     1   -0.6096    0.6096    0.2644    0.0287   90.0000    0.0000    0.0010    16     1     2     1
     2   -0.6096    0.6096    0.2931    0.0287   90.0000    0.0000    0.0010     1     2     3     1
     3   -0.6096    0.6096    0.3219    0.0287   90.0000    0.0000    0.0010     2     3     4     1
     4   -0.6096    0.6096    0.3506    0.0287   90.0000    0.0000    0.0010     3     4     5     1
     5   -0.6096    0.6096    0.3794    0.0287   90.0000    0.0000    0.0010     4     5     6     1
     6   -0.6096    0.6096    0.4081    0.0287   90.0000    0.0000    0.0010     5     6     7     1
     7   -0.6096    0.6096    0.4369    0.0287   90.0000    0.0000    0.0010     6     7     8     1
     8   -0.6096    0.6096    0.4656    0.0287   90.0000    0.0000    0.0010     7     8     0     1
     9   -0.6096    0.6096    0.0344    0.0288   90.0000    0.0000    0.0010     0     9    10     2
    10   -0.6096    0.6096    0.0631    0.0287   90.0000    0.0000    0.0010     9    10    11     2
    11   -0.6096    0.6096    0.0919    0.0287   90.0000    0.0000    0.0010    10    11    12     2
    12   -0.6096    0.6096    0.1206    0.0288   90.0000    0.0000    0.0010    11    12    13     2
    13   -0.6096    0.6096    0.1494    0.0287   90.0000    0.0000    0.0010    12    13    14     2
    14   -0.6096    0.6096    0.1781    0.0287   90.0000    0.0000    0.0010    13    14    15     2
    15   -0.6096    0.6096    0.2069    0.0287   90.0000    0.0000    0.0010    14    15    16     2
    16   -0.6096    0.6096    0.2356    0.0287   90.0000    0.0000    0.0010    15    16     1     2



*****  DATA CARD N0.   1 GN  -1     0     0     0  0.00000E+00  0.00000E+00  0.00000E+00  0.00000E+00  0.00000E+00  0.00000E+00
*****  DATA CARD N0.   2 FR   0     1     0     0  1.00000E+02  1.00000E+01  0.00000E+00  0.00000E+00  0.00000E+00  0.00000E+00
*****  DATA CARD N0.   3 EX   0     1     1     0  1.00000E+00  0.00000E+00  0.00000E+00  0.00000E+00  0.00000E+00  0.00000E+00
*****  DATA CARD N0.   4 RP   0    46    90  1000  0.00000E+00  0.00000E+00  4.00000E+00  4.00000E+00  0.00000E+00  0.00000E+00


                               --------- FREQUENCY --------
                               FREQUENCY=  1.0000E+02 MHZ
                               WAVELENGTH= 2.9980E+00 METERS


                        APPROXIMATE INTEGRATION EMPLOYED FOR SEGMENTS
                        THAT ARE MORE THAN 1.000 WAVELENGTHS APART
WARNING- SEGMENT[0] LENGTH TOO SMALL (0.009590)
WARNING- SEGMENT[1] LENGTH TOO SMALL (0.009590)
WARNING- SEGMENT[2] LENGTH TOO SMALL (0.009590)
WARNING- SEGMENT[3] LENGTH TOO SMALL (0.009590)
WARNING- SEGMENT[4] LENGTH TOO SMALL (0.009590)
WARNING- SEGMENT[5] LENGTH TOO SMALL (0.009590)
WARNING- SEGMENT[6] LENGTH TOO SMALL (0.009590)
WARNING- SEGMENT[7] LENGTH TOO SMALL (0.009590)
WARNING- SEGMENT[8] LENGTH TOO SMALL (0.009590)
WARNING- SEGMENT[9] LENGTH TOO SMALL (0.009590)
WARNING- SEGMENT[10] LENGTH TOO SMALL (0.009590)
WARNING- SEGMENT[11] LENGTH TOO SMALL (0.009590)
WARNING- SEGMENT[12] LENGTH TOO SMALL (0.009590)
WARNING- SEGMENT[13] LENGTH TOO SMALL (0.009590)
WARNING- SEGMENT[14] LENGTH TOO SMALL (0.009590)
WARNING- SEGMENT[15] LENGTH TOO SMALL (0.009590)



                          ------ STRUCTURE IMPEDANCE LOADING ------
                                 THIS STRUCTURE IS NOT LOADED



                            -------- ANTENNA ENVIRONMENT --------
                            FREE SPACE



                             ---------- MATRIX TIMING ----------
                               FILL= 0 msec  FACTOR: 0 msec


                      ----- ANTENNA INPUT PARAMETERS -----
  TAG   SEG       VOLTAGE (VOLTS)         CURRENT (AMPS)         IMPEDANCE (OHMS)        ADMITTANCE (MHOS)     POWER
  NO.   NO.     REAL      IMAGINARY     REAL      IMAGINARY     REAL      IMAGINARY    REAL       IMAGINARY   (WATTS)
   1     1  1.0000E+00  0.0000E+00  4.4650E-06  9.5791E-04  4.8658E+00 -1.0439E+03  4.4650E-06  9.5791E-04  2.2325E-06







                        ----- CURRENTS AND LOCATION -----
                            DISTANCES IN WAVELENGTHS 

   SEG  TAG    COORDINATES OF SEGM CENTER     SEGM    ------------- CURRENT (AMPS) -------------
   No:  No:       X         Y         Z      LENGTH     REAL      IMAGINARY    MAGN        PHASE
     1    1   -0.2033    0.2033    0.0882   0.00959  4.4650E-06  9.5791E-04  9.5792E-04   89.733 
     2    1   -0.2033    0.2033    0.0978   0.00959  4.3392E-06  8.3529E-04  8.3531E-04   89.702 
     3    1   -0.2033    0.2033    0.1074   0.00959  4.0867E-06  7.0275E-04  7.0276E-04   89.667 
     4    1   -0.2033    0.2033    0.1170   0.00959  3.7062E-06  5.8071E-04  5.8072E-04   89.634 
     5    1   -0.2033    0.2033    0.1265   0.00959  3.1944E-06  4.6109E-04  4.6111E-04   89.603 
     6    1   -0.2033    0.2033    0.1361   0.00959  2.5451E-06  3.4112E-04  3.4113E-04   89.573 
     7    1   -0.2033    0.2033    0.1457   0.00959  1.7439E-06  2.1835E-04  2.1835E-04   89.542 
     8    1   -0.2033    0.2033    0.1553   0.00959  7.1984E-07  8.4693E-05  8.4697E-05   89.513 
     9    2   -0.2033    0.2033    0.0115   0.00959  7.1942E-07  7.5798E-05  7.5801E-05   89.456 
    10    2   -0.2033    0.2033    0.0211   0.00959  1.7430E-06  1.9521E-04  1.9521E-04   89.488 
    11    2   -0.2033    0.2033    0.0306   0.00959  2.5440E-06  3.0455E-04  3.0456E-04   89.521 
    12    2   -0.2033    0.2033    0.0402   0.00959  3.1933E-06  4.1088E-04  4.1089E-04   89.555 
    13    2   -0.2033    0.2033    0.0498   0.00959  3.7052E-06  5.1602E-04  5.1603E-04   89.589 
    14    2   -0.2033    0.2033    0.0594   0.00959  4.0860E-06  6.2152E-04  6.2154E-04   89.623 
    15    2   -0.2033    0.2033    0.0690   0.00959  4.3387E-06  7.2981E-04  7.2982E-04   89.659 
    16    2   -0.2033    0.2033    0.0786   0.00959  4.4648E-06  8.4879E-04  8.4880E-04   89.699 






                               ---------- POWER BUDGET ---------
                               INPUT POWER   =  2.2325E-06 Watts
                               RADIATED POWER=  2.2325E-06 Watts
                               STRUCTURE LOSS=  0.0000E+00 Watts
                               NETWORK LOSS  =  0.0000E+00 Watts
                               EFFICIENCY    =  100.00 Percent


                         ----- RADIATION PATTERNS -----
 ---- ANGLES -----     ----- POWER GAINS -----       ---- POLARIZATION ----   ---- E(THETA) ----    ----- E(PHI) ------
  THETA      PHI       VERTC   HORIZ   TOTAL       AXIAL      TILT  SENSE   MAGNITUDE    PHASE    MAGNITUDE     PHASE
 DEGREES   DEGREES        DB       DB       DB       RATIO   DEGREES            VOLTS/M   DEGREES     VOLTS/M   DEGREES
    0.00      0.00   -999.99  -999.99  -999.99      0.0000      0.00         0.0000E+00      0.00  0.0000E+00      0.00
    4.00      0.00    -21.51  -999.99   -21.51      0.0000     -0.00 LINEAR  9.7180E-04   -154.95  0.0000E+00      0.00
    8.00      0.00    -15.51  -999.99   -15.51      0.0000     -0.00 LINEAR  1.9394E-03   -160.26  0.0000E+00      0.00
   12.00      0.00    -12.02  -999.99   -12.02      0.0000     -0.00 LINEAR  2.8988E-03   -165.66  0.0000E+00      0.00
   16.00      0.00     -9.57  -999.99    -9.57      0.0000     -0.00 LINEAR  3.8456E-03   -171.13  0.0000E+00      0.00
   20.00      0.00     -7.69  -999.99    -7.69      0.0000     -0.00 LINEAR  4.7758E-03   -176.65  0.0000E+00      0.00
   24.00      0.00     -6.17  -999.99    -6.17      0.0000     -0.00 LINEAR  5.6850E-03    177.81  0.0000E+00      0.00
   28.00      0.00     -4.92  -999.99    -4.92      0.0000     -0.00 LINEAR  6.5693E-03    172.28  0.0000E+00      0.00
   32.00      0.00     -3.85  -999.99    -3.85      0.0000     -0.00 LINEAR  7.4243E-03    166.79  0.0000E+00      0.00
   36.00      0.00     -2.94  -999.99    -2.94      0.0000     -0.00 LINEAR  8.2459E-03    161.36  0.0000E+00      0.00
   40.00      0.00     -2.15  -999.99    -2.15      0.0000     -0.00 LINEAR  9.0300E-03    156.02  0.0000E+00      0.00
   44.00      0.00     -1.47  -999.99    -1.47      0.0000     -0.00 LINEAR  9.7726E-03    150.79  0.0000E+00      0.00
   48.00      0.00     -0.87  -999.99    -0.87      0.0000     -0.00 LINEAR  1.0470E-02    145.71  0.0000E+00      0.00
   52.00      0.00     -0.35  -999.99    -0.35      0.0000     -0.00 LINEAR  1.1117E-02    140.79  0.0000E+00      0.00
   56.00      0.00      0.11  -999.99     0.11      0.0000     -0.00 LINEAR  1.1712E-02    136.06  0.0000E+00      0.00
   60.00      0.00      0.50  -999.99     0.50      0.0000     -0.00 LINEAR  1.2250E-02    131.54  0.0000E+00      0.00
   64.00      0.00      0.83  -999.99     0.83      0.0000     -0.00 LINEAR  1.2729E-02    127.25  0.0000E+00      0.00
   68.00      0.00      1.11  -999.99     1.11      0.0000     -0.00 LINEAR  1.3145E-02    123.23  0.0000E+00      0.00
   72.00      0.00      1.34  -999.99     1.34      0.0000     -0.00 LINEAR  1.3496E-02    119.47  0.0000E+00      0.00
   76.00      0.00      1.52  -999.99     1.52      0.0000     -0.00 LINEAR  1.3779E-02    116.01  0.0000E+00      0.00
   80.00      0.00      1.65  -999.99     1.65      0.0000     -0.00 LINEAR  1.3993E-02    112.86  0.0000E+00      0.00
   84.00      0.00      1.74  -999.99     1.74      0.0000     -0.00 LINEAR  1.4137E-02    110.04  0.0000E+00      0.00
   88.00      0.00      1.78  -999.99     1.78      0.0000     -0.00 LINEAR  1.4209E-02    107.55  0.0000E+00      0.00
   92.00      0.00      1.78  -999.99     1.78      0.0000     -0.00 LINEAR  1.4209E-02    105.42  0.0000E+00      0.00
   96.00      0.00      1.74  -999.99     1.74      0.0000     -0.00 LINEAR  1.4137E-02    103.64  0.0000E+00      0.00
  100.00      0.00      1.65  -999.99     1.65      0.0000     -0.00 LINEAR  1.3994E-02    102.24  0.0000E+00      0.00
  104.00      0.00      1.52  -999.99     1.52      0.0000     -0.00 LINEAR  1.3779E-02    101.21  0.0000E+00      0.00
  108.00      0.00      1.34  -999.99     1.34      0.0000     -0.00 LINEAR  1.3496E-02    100.57  0.0000E+00      0.00
  112.00      0.00      1.11  -999.99     1.11      0.0000     -0.00 LINEAR  1.3145E-02    100.31  0.0000E+00      0.00
  116.00      0.00      0.83  -999.99     0.83      0.0000     -0.00 LINEAR  1.2729E-02    100.44  0.0000E+00      0.00
  120.00      0.00      0.50  -999.99     0.50      0.0000     -0.00 LINEAR  1.2251E-02    100.95  0.0000E+00      0.00
  124.00      0.00      0.11  -999.99     0.11      0.0000     -0.00 LINEAR  1.1713E-02    101.85  0.0000E+00      0.00
  128.00      0.00     -0.35  -999.99    -0.35      0.0000     -0.00 LINEAR  1.1118E-02    103.13  0.0000E+00      0.00
  132.00      0.00     -0.87  -999.99    -0.87      0.0000     -0.00 LINEAR  1.0470E-02    104.78  0.0000E+00      0.00
  136.00      0.00     -1.47  -999.99    -1.47      0.0000     -0.00 LINEAR  9.7735E-03    106.79  0.0000E+00      0.00
  140.00      0.00     -2.15  -999.99    -2.15      0.0000     -0.00 LINEAR  9.0309E-03    109.16  0.0000E+00      0.00
  144.00      0.00     -2.94  -999.99    -2.94      0.0000     -0.00 LINEAR  8.2468E-03    111.87  0.0000E+00      0.00
  148.00      0.00     -3.85  -999.99    -3.85      0.0000     -0.00 LINEAR  7.4251E-03    114.91  0.0000E+00      0.00
  152.00      0.00     -4.92  -999.99    -4.92      0.0000     -0.00 LINEAR  6.5700E-03    118.27  0.0000E+00      0.00
  156.00      0.00     -6.17  -999.99    -6.17      0.0000     -0.00 LINEAR  5.6857E-03    121.93  0.0000E+00      0.00
  160.00      0.00     -7.68  -999.99    -7.68      0.0000     -0.00 LINEAR  4.7763E-03    125.86  0.0000E+00      0.00
  164.00      0.00     -9.57  -999.99    -9.57      0.0000     -0.00 LINEAR  3.8461E-03    130.06  0.0000E+00      0.00
  168.00      0.00    -12.02  -999.99   -12.02      0.0000     -0.00 LINEAR  2.8991E-03    134.50  0.0000E+00      0.00
  172.00      0.00    -15.51  -999.99   -15.51      0.0000     -0.00 LINEAR  1.9397E-03    139.16  0.0000E+00      0.00
  176.00      0.00    -21.51  -999.99   -21.51      0.0000     -0.00 LINEAR  9.7192E-04    144.02  0.0000E+00      0.00
  180.00      0.00   -999.99  -999.99  -999.99      0.0000      0.00         1.4220E-13    -30.95  0.0000E+00      0.00
    0.00      4.00   -999.99  -999.99  -999.99      0.0000      0.00         0.0000E+00      0.00  0.0000E+00      0.00
    4.00      4.00    -21.51  -999.99   -21.51      0.0000     -0.00 LINEAR  9.7180E-04   -154.58  0.0000E+00      0.00
    8.00      4.00    -15.51  -999.99   -15.51      0.0000     -0.00 LINEAR  1.9394E-03   -159.52  0.0000E+00      0.00
   12.00      4.00    -12.02  -999.99   -12.02      0.0000     -0.00 LINEAR  2.8988E-03   -164.56  0.0000E+00      0.00
   16.00      4.00     -9.57  -999.99    -9.57      0.0000     -0.00 LINEAR  3.8456E-03   -169.68  0.0000E+00      0.00
   20.00      4.00     -7.69  -999.99    -7.69      0.0000     -0.00 LINEAR  4.7758E-03   -174.85  0.0000E+00      0.00
   24.00      4.00     -6.17  -999.99    -6.17      0.0000     -0.00 LINEAR  5.6850E-03    179.96  0.0000E+00      0.00
   28.00      4.00     -4.92  -999.99    -4.92      0.0000     -0.00 LINEAR  6.5693E-03    174.76  0.0000E+00      0.00
   32.00      4.00     -3.85  -999.99    -3.85      0.0000     -0.00 LINEAR  7.4243E-03    169.59  0.0000E+00      0.00
   36.00      4.00     -2.94  -999.99    -2.94      0.0000     -0.00 LINEAR  8.2459E-03    164.46  0.0000E+00      0.00
   40.00      4.00     -2.15  -999.99    -2.15      0.0000     -0.00 LINEAR  9.0300E-03    159.41  0.0000E+00      0.00
   44.00      4.00     -1.47  -999.99    -1.47      0.0000     -0.00 LINEAR  9.7726E-03    154.46  0.0000E+00      0.00
   48.00      4.00     -0.87  -999.99    -0.87      0.0000     -0.00 LINEAR  1.0470E-02    149.63  0.0000E+00      0.00
   52.00      4.00     -0.35  -999.99    -0.35      0.0000     -0.00 LINEAR  1.1117E-02    144.95  0.0000E+00      0.00
   56.00      4.00      0.11  -999.99     0.11      0.0000     -0.00 LINEAR  1.1712E-02    140.44  0.0000E+00      0.00
   60.00      4.00      0.50  -999.99     0.50      0.0000     -0.00 LINEAR  1.2250E-02    136.11  0.0000E+00      0.00
   64.00      4.00      0.83  -999.99     0.83      0.0000     -0.00 LINEAR  1.2729E-02    132.00  0.0000E+00      0.00
   68.00      4.00      1.11  -999.99     1.11      0.0000     -0.00 LINEAR  1.3145E-02    128.12  0.0000E+00      0.00
   72.00      4.00      1.34  -999.99     1.34      0.0000     -0.00 LINEAR  1.3496E-02    124.50  0.0000E+00      0.00
   76.00      4.00      1.52  -999.99     1.52      0.0000     -0.00 LINEAR  1.3779E-02    121.14  0.0000E+00      0.00
   80.00      4.00      1.65  -999.99     1.65      0.0000     -0.00 LINEAR  1.3993E-02    118.07  0.0000E+00      0.00
   84.00      4.00      1.74  -999.99     1.74      0.0000     -0.00 LINEAR  1.4137E-02    115.29  0.0000E+00      0.00
   88.00      4.00      1.78  -999.99     1.78      0.0000     -0.00 LINEAR  1.4209E-02    112.83  0.0000E+00      0.00
   92.00      4.00      1.78  -999.99     1.78      0.0000     -0.00 LINEAR  1.4209E-02    110.70  0.0000E+00      0.00
   96.00      4.00      1.74  -999.99     1.74      0.0000     -0.00 LINEAR  1.4137E-02    108.90  0.0000E+00      0.00
  100.00      4.00      1.65  -999.99     1.65      0.0000     -0.00 LINEAR  1.3994E-02    107.44  0.0000E+00      0.00
  104.00      4.00      1.52  -999.99     1.52      0.0000     -0.00 LINEAR  1.3779E-02    106.34  0.0000E+00      0.00
  108.00      4.00      1.34  -999.99     1.34      0.0000     -0.00 LINEAR  1.3496E-02    105.60  0.0000E+00      0.00
  112.00      4.00      1.11  -999.99     1.11      0.0000     -0.00 LINEAR  1.3145E-02    105.21  0.0000E+00      0.00
  116.00      4.00      0.83  -999.99     0.83      0.0000     -0.00 LINEAR  1.2729E-02    105.19  0.0000E+00      0.00
  120.00      4.00      0.50  -999.99     0.50      0.0000     -0.00 LINEAR  1.2251E-02    105.53  0.0000E+00      0.00
  124.00      4.00      0.11  -999.99     0.11      0.0000     -0.00 LINEAR  1.1713E-02    106.23  0.0000E+00      0.00
  128.00      4.00     -0.35  -999.99    -0.35      0.0000     -0.00 LINEAR  1.1118E-02    107.29  0.0000E+00      0.00
  132.00      4.00     -0.87  -999.99    -0.87      0.0000     -0.00 LINEAR  1.0470E-02    108.70  0.0000E+00      0.00
  136.00      4.00     -1.47  -999.99    -1.47      0.0000     -0.00 LINEAR  9.7735E-03    110.46  0.0000E+00      0.00
  140.00      4.00     -2.15  -999.99    -2.15      0.0000     -0.00 LINEAR  9.0309E-03    112.56  0.0000E+00      0.00
  144.00      4.00     -2.94  -999.99    -2.94      0.0000     -0.00 LINEAR  8.2468E-03    114.98  0.0000E+00      0.00
  148.00      4.00     -3.85  -999.99    -3.85      0.0000     -0.00 LINEAR  7.4251E-03    117.71  0.0000E+00      0.00
  152.00      4.00     -4.92  -999.99    -4.92      0.0000     -0.00 LINEAR  6.5700E-03    120.75  0.0000E+00      0.00
  156.00      4.00     -6.17  -999.99    -6.17      0.0000     -0.00 LINEAR  5.6857E-03    124.07  0.0000E+00      0.00
  160.00      4.00     -7.68  -999.99    -7.68      0.0000     -0.00 LINEAR  4.7763E-03    127.67  0.0000E+00      0.00
  164.00      4.00     -9.57  -999.99    -9.57      0.0000     -0.00 LINEAR  3.8461E-03    131.52  0.0000E+00      0.00
  168.00      4.00    -12.02  -999.99   -12.02      0.0000     -0.00 LINEAR  2.8991E-03    135.60  0.0000E+00      0.00
  172.00      4.00    -15.51  -999.99   -15.51      0.0000     -0.00 LINEAR  1.9397E-03    139.90  0.0000E+00      0.00
  176.00      4.00    -21.51  -999.99   -21.51      0.0000     -0.00 LINEAR  9.7192E-04    144.39  0.0000E+00      0.00
  180.00      4.00   -999.99  -999.99  -999.99      0.0000      0.00         1.4220E-13    -30.95  0.0000E+00      0.00
    0.00      8.00   -999.99  -999.99  -999.99      0.0000      0.00         0.0000E+00      0.00  0.0000E+00      0.00
    4.00      8.00    -21.51  -999.99   -21.51      0.0000     -0.00 LINEAR  9.7180E-04   -154.19  0.0000E+00      0.00
    8.00      8.00    -15.51  -999.99   -15.51      0.0000     -0.00 LINEAR  1.9394E-03   -158.74  0.0000E+00      0.00
   12.00      8.00    -12.02  -999.99   -12.02      0.0000     -0.00 LINEAR  2.8988E-03   -163.39  0.0000E+00      0.00
   16.00      8.00     -9.57  -999.99    -9.57      0.0000     -0.00 LINEAR  3.8456E-03   -168.13  0.0000E+00      0.00
   20.00      8.00     -7.69  -999.99    -7.69      0.0000     -0.00 LINEAR  4.7758E-03   -172.93  0.0000E+00      0.00
   24.00      8.00     -6.17  -999.99    -6.17      0.0000     -0.00 LINEAR  5.6850E-03   -177.76  0.0000E+00      0.00
   28.00      8.00     -4.92  -999.99    -4.92      0.0000     -0.00 LINEAR  6.5693E-03    177.40  0.0000E+00      0.00
   32.00      8.00     -3.85  -999.99    -3.85      0.0000     -0.00 LINEAR  7.4243E-03    172.56  0.0000E+00      0.00
   36.00      8.00     -2.94  -999.99    -2.94      0.0000     -0.00 LINEAR  8.2459E-03    167.76  0.0000E+00      0.00
   40.00      8.00     -2.15  -999.99    -2.15      0.0000     -0.00 LINEAR  9.0300E-03    163.02  0.0000E+00      0.00
   44.00      8.00     -1.47  -999.99    -1.47      0.0000     -0.00 LINEAR  9.7726E-03    158.36  0.0000E+00      0.00
   48.00      8.00     -0.87  -999.99    -0.87      0.0000     -0.00 LINEAR  1.0470E-02    153.81  0.0000E+00      0.00
   52.00      8.00     -0.35  -999.99    -0.35      0.0000     -0.00 LINEAR  1.1117E-02    149.38  0.0000E+00      0.00
   56.00      8.00      0.11  -999.99     0.11      0.0000     -0.00 LINEAR  1.1712E-02    145.09  0.0000E+00      0.00
   60.00      8.00      0.50  -999.99     0.50      0.0000     -0.00 LINEAR  1.2250E-02    140.98  0.0000E+00      0.00
   64.00      8.00      0.83  -999.99     0.83      0.0000     -0.00 LINEAR  1.2729E-02    137.05  0.0000E+00      0.00
   68.00      8.00      1.11  -999.99     1.11      0.0000     -0.00 LINEAR  1.3145E-02    133.33  0.0000E+00      0.00
   72.00      8.00      1.34  -999.99     1.34      0.0000     -0.00 LINEAR  1.3496E-02    129.84  0.0000E+00      0.00
   76.00      8.00      1.52  -999.99     1.52      0.0000     -0.00 LINEAR  1.3779E-02    126.59  0.0000E+00      0.00
   80.00      8.00      1.65  -999.99     1.65      0.0000     -0.00 LINEAR  1.3993E-02    123.60  0.0000E+00      0.00
   84.00      8.00      1.74  -999.99     1.74      0.0000     -0.00 LINEAR  1.4137E-02    120.88  0.0000E+00      0.00
   88.00      8.00      1.78  -999.99     1.78      0.0000     -0.00 LINEAR  1.4209E-02    118.44  0.0000E+00      0.00
   92.00      8.00      1.78  -999.99     1.78      0.0000     -0.00 LINEAR  1.4209E-02    116.31  0.0000E+00      0.00
   96.00      8.00      1.74  -999.99     1.74      0.0000     -0.00 LINEAR  1.4137E-02    114.48  0.0000E+00      0.00
  100.00      8.00      1.65  -999.99     1.65      0.0000     -0.00 LINEAR  1.3994E-02    112.97  0.0000E+00      0.00
  104.00      8.00      1.52  -999.99     1.52      0.0000     -0.00 LINEAR  1.3779E-02    111.79  0.0000E+00      0.00
  108.00      8.00      1.34  -999.99     1.34      0.0000     -0.00 LINEAR  1.3496E-02    110.94  0.0000E+00      0.00
  112.00      8.00      1.11  -999.99     1.11      0.0000     -0.00 LINEAR  1.3145E-02    110.42  0.0000E+00      0.00
  116.00      8.00      0.83  -999.99     0.83      0.0000     -0.00 LINEAR  1.2729E-02    110.24  0.0000E+00      0.00
  120.00      8.00      0.50  -999.99     0.50      0.0000     -0.00 LINEAR  1.2251E-02    110.39  0.0000E+00      0.00
  124.00      8.00      0.11  -999.99     0.11      0.0000     -0.00 LINEAR  1.1713E-02    110.89  0.0000E+00      0.00
  128.00      8.00     -0.35  -999.99    -0.35      0.0000     -0.00 LINEAR  1.1118E-02    111.72  0.0000E+00      0.00
  132.00      8.00     -0.87  -999.99    -0.87      0.0000     -0.00 LINEAR  1.0470E-02    112.88  0.0000E+00      0.00
  136.00      8.00     -1.47  -999.99    -1.47      0.0000     -0.00 LINEAR  9.7735E-03    114.36  0.0000E+00      0.00
  140.00      8.00     -2.15  -999.99    -2.15      0.0000     -0.00 LINEAR  9.0309E-03    116.16  0.0000E+00      0.00
  144.00      8.00     -2.94  -999.99    -2.94      0.0000     -0.00 LINEAR  8.2468E-03    118.28  0.0000E+00      0.00
  148.00      8.00     -3.85  -999.99    -3.85      0.0000     -0.00 LINEAR  7.4251E-03    120.69  0.0000E+00      0.00
  152.00      8.00     -4.92  -999.99    -4.92      0.0000     -0.00 LINEAR  6.5700E-03    123.39  0.0000E+00      0.00
  156.00      8.00     -6.17  -999.99    -6.17      0.0000     -0.00 LINEAR  5.6857E-03    126.36  0.0000E+00      0.00
  160.00      8.00     -7.68  -999.99    -7.68      0.0000     -0.00 LINEAR  4.7763E-03    129.59  0.0000E+00      0.00
  164.00      8.00     -9.57  -999.99    -9.57      0.0000     -0.00 LINEAR  3.8461E-03    133.07  0.0000E+00      0.00
  168.00      8.00    -12.02  -999.99   -12.02      0.0000     -0.00 LINEAR  2.8991E-03    136.77  0.0000E+00      0.00
  172.00      8.00    -15.51  -999.99   -15.51      0.0000     -0.00 LINEAR  1.9397E-03    140.68  0.0000E+00      0.00
  176.00      8.00    -21.51  -999.99   -21.51      0.0000     -0.00 LINEAR  9.7192E-04    144.78  0.0000E+00      0.00
  180.00      8.00   -999.99  -999.99  -999.99      0.0000      0.00         1.4220E-13    -30.95  0.0000E+00      0.00
    0.00     12.00   -999.99  -999.99  -999.99      0.0000      0.00         0.0000E+00      0.00  0.0000E+00      0.00
    4.00     12.00    -21.51  -999.99   -21.51      0.0000     -0.00 LINEAR  9.7180E-04   -153.78  0.0000E+00      0.00
    8.00     12.00    -15.51  -999.99   -15.51      0.0000     -0.00 LINEAR  1.9394E-03   -157.92  0.0000E+00      0.00
   12.00     12.00    -12.02  -999.99   -12.02      0.0000     -0.00 LINEAR  2.8988E-03   -162.16  0.0000E+00      0.00
   16.00     12.00     -9.57  -999.99    -9.57      0.0000     -0.00 LINEAR  3.8456E-03   -166.50  0.0000E+00      0.00
   20.00     12.00     -7.69  -999.99    -7.69      0.0000     -0.00 LINEAR  4.7758E-03   -170.90  0.0000E+00      0.00
   24.00     12.00     -6.17  -999.99    -6.17      0.0000     -0.00 LINEAR  5.6850E-03   -175.35  0.0000E+00      0.00
   28.00     12.00     -4.92  -999.99    -4.92      0.0000     -0.00 LINEAR  6.5693E-03   -179.82  0.0000E+00      0.00
   32.00     12.00     -3.85  -999.99    -3.85      0.0000     -0.00 LINEAR  7.4243E-03    175.70  0.0000E+00      0.00
   36.00     12.00     -2.94  -999.99    -2.94      0.0000     -0.00 LINEAR  8.2459E-03    171.24  0.0000E+00      0.00
   40.00     12.00     -2.15  -999.99    -2.15      0.0000     -0.00 LINEAR  9.0300E-03    166.83  0.0000E+00      0.00
   44.00     12.00     -1.47  -999.99    -1.47      0.0000     -0.00 LINEAR  9.7726E-03    162.47  0.0000E+00      0.00
   48.00     12.00     -0.87  -999.99    -0.87      0.0000     -0.00 LINEAR  1.0470E-02    158.20  0.0000E+00      0.00
   52.00     12.00     -0.35  -999.99    -0.35      0.0000     -0.00 LINEAR  1.1117E-02    154.04  0.0000E+00      0.00
   56.00     12.00      0.11  -999.99     0.11      0.0000     -0.00 LINEAR  1.1712E-02    150.00  0.0000E+00      0.00
   60.00     12.00      0.50  -999.99     0.50      0.0000     -0.00 LINEAR  1.2250E-02    146.10  0.0000E+00      0.00
   64.00     12.00      0.83  -999.99     0.83      0.0000     -0.00 LINEAR  1.2729E-02    142.37  0.0000E+00      0.00
   68.00     12.00      1.11  -999.99     1.11      0.0000     -0.00 LINEAR  1.3145E-02    138.82  0.0000E+00      0.00
   72.00     12.00      1.34  -999.99     1.34      0.0000     -0.00 LINEAR  1.3496E-02    135.47  0.0000E+00      0.00
   76.00     12.00      1.52  -999.99     1.52      0.0000     -0.00 LINEAR  1.3779E-02    132.33  0.0000E+00      0.00
   80.00     12.00      1.65  -999.99     1.65      0.0000     -0.00 LINEAR  1.3993E-02    129.42  0.0000E+00      0.00
   84.00     12.00      1.74  -999.99     1.74      0.0000     -0.00 LINEAR  1.4137E-02    126.76  0.0000E+00      0.00
   88.00     12.00      1.78  -999.99     1.78      0.0000     -0.00 LINEAR  1.4209E-02    124.36  0.0000E+00      0.00
   92.00     12.00      1.78  -999.99     1.78      0.0000     -0.00 LINEAR  1.4209E-02    122.22  0.0000E+00      0.00
   96.00     12.00      1.74  -999.99     1.74      0.0000     -0.00 LINEAR  1.4137E-02    120.37  0.0000E+00      0.00
  100.00     12.00      1.65  -999.99     1.65      0.0000     -0.00 LINEAR  1.3994E-02    118.80  0.0000E+00      0.00
  104.00     12.00      1.52  -999.99     1.52      0.0000     -0.00 LINEAR  1.3779E-02    117.53  0.0000E+00      0.00
  108.00     12.00      1.34  -999.99     1.34      0.0000     -0.00 LINEAR  1.3496E-02    116.57  0.0000E+00      0.00
  112.00     12.00      1.11  -999.99     1.11      0.0000     -0.00 LINEAR  1.3145E-02    115.91  0.0000E+00      0.00
  116.00     12.00      0.83  -999.99     0.83      0.0000     -0.00 LINEAR  1.2729E-02    115.56  0.0000E+00      0.00
  120.00     12.00      0.50  -999.99     0.50      0.0000     -0.00 LINEAR  1.2251E-02    115.52  0.0000E+00      0.00
  124.00     12.00      0.11  -999.99     0.11      0.0000     -0.00 LINEAR  1.1713E-02    115.79  0.0000E+00      0.00
  128.00     12.00     -0.35  -999.99    -0.35      0.0000     -0.00 LINEAR  1.1118E-02    116.38  0.0000E+00      0.00
  132.00     12.00     -0.87  -999.99    -0.87      0.0000     -0.00 LINEAR  1.0470E-02    117.28  0.0000E+00      0.00
  136.00     12.00     -1.47  -999.99    -1.47      0.0000     -0.00 LINEAR  9.7735E-03    118.47  0.0000E+00      0.00
  140.00     12.00     -2.15  -999.99    -2.15      0.0000     -0.00 LINEAR  9.0309E-03    119.97  0.0000E+00      0.00
  144.00     12.00     -2.94  -999.99    -2.94      0.0000     -0.00 LINEAR  8.2468E-03    121.76  0.0000E+00      0.00
  148.00     12.00     -3.85  -999.99    -3.85      0.0000     -0.00 LINEAR  7.4251E-03    123.82  0.0000E+00      0.00
  152.00     12.00     -4.92  -999.99    -4.92      0.0000     -0.00 LINEAR  6.5700E-03    126.17  0.0000E+00      0.00
  156.00     12.00     -6.17  -999.99    -6.17      0.0000     -0.00 LINEAR  5.6857E-03    128.77  0.0000E+00      0.00
  160.00     12.00     -7.68  -999.99    -7.68      0.0000     -0.00 LINEAR  4.7763E-03    131.62  0.0000E+00      0.00
  164.00     12.00     -9.57  -999.99    -9.57      0.0000     -0.00 LINEAR  3.8461E-03    134.70  0.0000E+00      0.00
  168.00     12.00    -12.02  -999.99   -12.02      0.0000     -0.00 LINEAR  2.8991E-03    138.00  0.0000E+00      0.00
  172.00     12.00    -15.51  -999.99   -15.51      0.0000     -0.00 LINEAR  1.9397E-03    141.51  0.0000E+00      0.00
  176.00     12.00    -21.51  -999.99   -21.51      0.0000     -0.00 LINEAR  9.7192E-04    145.20  0.0000E+00      0.00
  180.00     12.00   -999.99  -999.99  -999.99      0.0000      0.00         1.4220E-13    -30.95  0.0000E+00      0.00
    0.00     16.00   -999.99  -999.99  -999.99      0.0000      0.00         0.0000E+00      0.00  0.0000E+00      0.00
    4.00     16.00    -21.51  -999.99   -21.51      0.0000     -0.00 LINEAR  9.7180E-04   -153.35  0.0000E+00      0.00
    8.00     16.00    -15.51  -999.99   -15.51      0.0000     -0.00 LINEAR  1.9394E-03   -157.05  0.0000E+00      0.00
   12.00     16.00    -12.02  -999.99   -12.02      0.0000     -0.00 LINEAR  2.8988E-03   -160.88  0.0000E+00      0.00
   16.00     16.00     -9.57  -999.99    -9.57      0.0000     -0.00 LINEAR  3.8456E-03   -164.79  0.0000E+00      0.00
   20.00     16.00     -7.69  -999.99    -7.69      0.0000     -0.00 LINEAR  4.7758E-03   -168.78  0.0000E+00      0.00
   24.00     16.00     -6.17  -999.99    -6.17      0.0000     -0.00 LINEAR  5.6850E-03   -172.83  0.0000E+00      0.00
   28.00     16.00     -4.92  -999.99    -4.92      0.0000     -0.00 LINEAR  6.5693E-03   -176.92  0.0000E+00      0.00
   32.00     16.00     -3.85  -999.99    -3.85      0.0000     -0.00 LINEAR  7.4243E-03    178.98  0.0000E+00      0.00
   36.00     16.00     -2.94  -999.99    -2.94      0.0000     -0.00 LINEAR  8.2459E-03    174.88  0.0000E+00      0.00
   40.00     16.00     -2.15  -999.99    -2.15      0.0000     -0.00 LINEAR  9.0300E-03    170.81  0.0000E+00      0.00
   44.00     16.00     -1.47  -999.99    -1.47      0.0000     -0.00 LINEAR  9.7726E-03    166.78  0.0000E+00      0.00
   48.00     16.00     -0.87  -999.99    -0.87      0.0000     -0.00 LINEAR  1.0470E-02    162.81  0.0000E+00      0.00
   52.00     16.00     -0.35  -999.99    -0.35      0.0000     -0.00 LINEAR  1.1117E-02    158.92  0.0000E+00      0.00
   56.00     16.00      0.11  -999.99     0.11      0.0000     -0.00 LINEAR  1.1712E-02    155.13  0.0000E+00      0.00
   60.00     16.00      0.50  -999.99     0.50      0.0000     -0.00 LINEAR  1.2250E-02    151.47  0.0000E+00      0.00
   64.00     16.00      0.83  -999.99     0.83      0.0000     -0.00 LINEAR  1.2729E-02    147.94  0.0000E+00      0.00
   68.00     16.00      1.11  -999.99     1.11      0.0000     -0.00 LINEAR  1.3145E-02    144.56  0.0000E+00      0.00
   72.00     16.00      1.34  -999.99     1.34      0.0000     -0.00 LINEAR  1.3496E-02    141.36  0.0000E+00      0.00
   76.00     16.00      1.52  -999.99     1.52      0.0000     -0.00 LINEAR  1.3779E-02    138.34  0.0000E+00      0.00
   80.00     16.00      1.65  -999.99     1.65      0.0000     -0.00 LINEAR  1.3993E-02    135.52  0.0000E+00      0.00
   84.00     16.00      1.74  -999.99     1.74      0.0000     -0.00 LINEAR  1.4137E-02    132.92  0.0000E+00      0.00
   88.00     16.00      1.78  -999.99     1.78      0.0000     -0.00 LINEAR  1.4209E-02    130.55  0.0000E+00      0.00
   92.00     16.00      1.78  -999.99     1.78      0.0000     -0.00 LINEAR  1.4209E-02    128.41  0.0000E+00      0.00
   96.00     16.00      1.74  -999.99     1.74      0.0000     -0.00 LINEAR  1.4137E-02    126.53  0.0000E+00      0.00
  100.00     16.00      1.65  -999.99     1.65      0.0000     -0.00 LINEAR  1.3994E-02    124.90  0.0000E+00      0.00
  104.00     16.00      1.52  -999.99     1.52      0.0000     -0.00 LINEAR  1.3779E-02    123.54  0.0000E+00      0.00
  108.00     16.00      1.34  -999.99     1.34      0.0000     -0.00 LINEAR  1.3496E-02    122.46  0.0000E+00      0.00
  112.00     16.00      1.11  -999.99     1.11      0.0000     -0.00 LINEAR  1.3145E-02    121.65  0.0000E+00      0.00
  116.00     16.00      0.83  -999.99     0.83      0.0000     -0.00 LINEAR  1.2729E-02    121.12  0.0000E+00      0.00
  120.00     16.00      0.50  -999.99     0.50      0.0000     -0.00 LINEAR  1.2251E-02    120.88  0.0000E+00      0.00
  124.00     16.00      0.11  -999.99     0.11      0.0000     -0.00 LINEAR  1.1713E-02    120.93  0.0000E+00      0.00
  128.00     16.00     -0.35  -999.99    -0.35      0.0000     -0.00 LINEAR  1.1118E-02    121.26  0.0000E+00      0.00
  132.00     16.00     -0.87  -999.99    -0.87      0.0000     -0.00 LINEAR  1.0470E-02    121.88  0.0000E+00      0.00
  136.00     16.00     -1.47  -999.99    -1.47      0.0000     -0.00 LINEAR  9.7735E-03    122.78  0.0000E+00      0.00
  140.00     16.00     -2.15  -999.99    -2.15      0.0000     -0.00 LINEAR  9.0309E-03    123.95  0.0000E+00      0.00
  144.00     16.00     -2.94  -999.99    -2.94      0.0000     -0.00 LINEAR  8.2468E-03    125.40  0.0000E+00      0.00
  148.00     16.00     -3.85  -999.99    -3.85      0.0000     -0.00 LINEAR  7.4251E-03    127.11  0.0000E+00      0.00
  152.00     16.00     -4.92  -999.99    -4.92      0.0000     -0.00 LINEAR  6.5700E-03    129.07  0.0000E+00      0.00
  156.00     16.00     -6.17  -999.99    -6.17      0.0000     -0.00 LINEAR  5.6857E-03    131.29  0.0000E+00      0.00
  160.00     16.00     -7.68  -999.99    -7.68      0.0000     -0.00 LINEAR  4.7763E-03    133.73  0.0000E+00      0.00
  164.00     16.00     -9.57  -999.99    -9.57      0.0000     -0.00 LINEAR  3.8461E-03    136.41  0.0000E+00      0.00
  168.00     16.00    -12.02  -999.99   -12.02      0.0000     -0.00 LINEAR  2.8991E-03    139.29  0.0000E+00      0.00
  172.00     16.00    -15.51  -999.99   -15.51      0.0000     -0.00 LINEAR  1.9397E-03    142.37  0.0000E+00      0.00
  176.00     16.00    -21.51  -999.99   -21.51      0.0000     -0.00 LINEAR  9.7192E-04    145.63  0.0000E+00      0.00
  180.00     16.00   -999.99  -999.99  -999.99      0.0000      0.00         1.4220E-13    -30.95  0.0000E+00      0.00
    0.00     20.00   -999.99  -999.99  -999.99      0.0000      0.00         0.0000E+00      0.00  0.0000E+00      0.00
    4.00     20.00    -21.51  -999.99   -21.51      0.0000     -0.00 LINEAR  9.7180E-04   -152.90  0.0000E+00      0.00
    8.00     20.00    -15.51  -999.99   -15.51      0.0000     -0.00 LINEAR  1.9394E-03   -156.16  0.0000E+00      0.00
   12.00     20.00    -12.02  -999.99   -12.02      0.0000     -0.00 LINEAR  2.8988E-03   -159.54  0.0000E+00      0.00
   16.00     20.00     -9.57  -999.99    -9.57      0.0000     -0.00 LINEAR  3.8456E-03   -163.02  0.0000E+00      0.00
   20.00     20.00     -7.69  -999.99    -7.69      0.0000     -0.00 LINEAR  4.7758E-03   -166.58  0.0000E+00      0.00
   24.00     20.00     -6.17  -999.99    -6.17      0.0000     -0.00 LINEAR  5.6850E-03   -170.21  0.0000E+00      0.00
   28.00     20.00     -4.92  -999.99    -4.92      0.0000     -0.00 LINEAR  6.5693E-03   -173.89  0.0000E+00      0.00
   32.00     20.00     -3.85  -999.99    -3.85      0.0000     -0.00 LINEAR  7.4243E-03   -177.61  0.0000E+00      0.00
   36.00     20.00     -2.94  -999.99    -2.94      0.0000     -0.00 LINEAR  8.2459E-03    178.67  0.0000E+00      0.00
   40.00     20.00     -2.15  -999.99    -2.15      0.0000     -0.00 LINEAR  9.0300E-03    174.95  0.0000E+00      0.00
   44.00     20.00     -1.47  -999.99    -1.47      0.0000     -0.00 LINEAR  9.7726E-03    171.25  0.0000E+00      0.00
   48.00     20.00     -0.87  -999.99    -0.87      0.0000     -0.00 LINEAR  1.0470E-02    167.59  0.0000E+00      0.00
   52.00     20.00     -0.35  -999.99    -0.35      0.0000     -0.00 LINEAR  1.1117E-02    163.99  0.0000E+00      0.00
   56.00     20.00      0.11  -999.99     0.11      0.0000     -0.00 LINEAR  1.1712E-02    160.47  0.0000E+00      0.00
   60.00     20.00      0.50  -999.99     0.50      0.0000     -0.00 LINEAR  1.2250E-02    157.04  0.0000E+00      0.00
   64.00     20.00      0.83  -999.99     0.83      0.0000     -0.00 LINEAR  1.2729E-02    153.72  0.0000E+00      0.00
   68.00     20.00      1.11  -999.99     1.11      0.0000     -0.00 LINEAR  1.3145E-02    150.53  0.0000E+00      0.00
   72.00     20.00      1.34  -999.99     1.34      0.0000     -0.00 LINEAR  1.3496E-02    147.48  0.0000E+00      0.00
   76.00     20.00      1.52  -999.99     1.52      0.0000     -0.00 LINEAR  1.3779E-02    144.59  0.0000E+00      0.00
   80.00     20.00      1.65  -999.99     1.65      0.0000     -0.00 LINEAR  1.3993E-02    141.86  0.0000E+00      0.00
   84.00     20.00      1.74  -999.99     1.74      0.0000     -0.00 LINEAR  1.4137E-02    139.33  0.0000E+00      0.00
   88.00     20.00      1.78  -999.99     1.78      0.0000     -0.00 LINEAR  1.4209E-02    136.98  0.0000E+00      0.00
   92.00     20.00      1.78  -999.99     1.78      0.0000     -0.00 LINEAR  1.4209E-02    134.85  0.0000E+00      0.00
   96.00     20.00      1.74  -999.99     1.74      0.0000     -0.00 LINEAR  1.4137E-02    132.93  0.0000E+00      0.00
  100.00     20.00      1.65  -999.99     1.65      0.0000     -0.00 LINEAR  1.3994E-02    131.24  0.0000E+00      0.00
  104.00     20.00      1.52  -999.99     1.52      0.0000     -0.00 LINEAR  1.3779E-02    129.79  0.0000E+00      0.00
  108.00     20.00      1.34  -999.99     1.34      0.0000     -0.00 LINEAR  1.3496E-02    128.58  0.0000E+00      0.00
  112.00     20.00      1.11  -999.99     1.11      0.0000     -0.00 LINEAR  1.3145E-02    127.62  0.0000E+00      0.00
  116.00     20.00      0.83  -999.99     0.83      0.0000     -0.00 LINEAR  1.2729E-02    126.91  0.0000E+00      0.00
  120.00     20.00      0.50  -999.99     0.50      0.0000     -0.00 LINEAR  1.2251E-02    126.46  0.0000E+00      0.00
  124.00     20.00      0.11  -999.99     0.11      0.0000     -0.00 LINEAR  1.1713E-02    126.27  0.0000E+00      0.00
  128.00     20.00     -0.35  -999.99    -0.35      0.0000     -0.00 LINEAR  1.1118E-02    126.34  0.0000E+00      0.00
  132.00     20.00     -0.87  -999.99    -0.87      0.0000     -0.00 LINEAR  1.0470E-02    126.66  0.0000E+00      0.00
  136.00     20.00     -1.47  -999.99    -1.47      0.0000     -0.00 LINEAR  9.7735E-03    127.25  0.0000E+00      0.00
  140.00     20.00     -2.15  -999.99    -2.15      0.0000     -0.00 LINEAR  9.0309E-03    128.09  0.0000E+00      0.00
  144.00     20.00     -2.94  -999.99    -2.94      0.0000     -0.00 LINEAR  8.2468E-03    129.18  0.0000E+00      0.00
  148.00     20.00     -3.85  -999.99    -3.85      0.0000     -0.00 LINEAR  7.4251E-03    130.52  0.0000E+00      0.00
  152.00     20.00     -4.92  -999.99    -4.92      0.0000     -0.00 LINEAR  6.5700E-03    132.10  0.0000E+00      0.00
  156.00     20.00     -6.17  -999.99    -6.17      0.0000     -0.00 LINEAR  5.6857E-03    133.90  0.0000E+00      0.00
  160.00     20.00     -7.68  -999.99    -7.68      0.0000     -0.00 LINEAR  4.7763E-03    135.94  0.0000E+00      0.00
  164.00     20.00     -9.57  -999.99    -9.57      0.0000     -0.00 LINEAR  3.8461E-03    138.18  0.0000E+00      0.00
  168.00     20.00    -12.02  -999.99   -12.02      0.0000     -0.00 LINEAR  2.8991E-03    140.63  0.0000E+00      0.00
  172.00     20.00    -15.51  -999.99   -15.51      0.0000     -0.00 LINEAR  1.9397E-03    143.26  0.0000E+00      0.00
  176.00     20.00    -21.51  -999.99   -21.51      0.0000     -0.00 LINEAR  9.7192E-04    146.08  0.0000E+00      0.00
  180.00     20.00   -999.99  -999.99  -999.99      0.0000      0.00         1.4220E-13    -30.95  0.0000E+00      0.00
    0.00     24.00   -999.99  -999.99  -999.99      0.0000      0.00         0.0000E+00      0.00  0.0000E+00      0.00
    4.00     24.00    -21.51  -999.99   -21.51      0.0000     -0.00 LINEAR  9.7180E-04   -152.43  0.0000E+00      0.00
    8.00     24.00    -15.51  -999.99   -15.51      0.0000     -0.00 LINEAR  1.9394E-03   -155.23  0.0000E+00      0.00
   12.00     24.00    -12.02  -999.99   -12.02      0.0000     -0.00 LINEAR  2.8988E-03   -158.15  0.0000E+00      0.00
   16.00     24.00     -9.57  -999.99    -9.57      0.0000     -0.00 LINEAR  3.8456E-03   -161.18  0.0000E+00      0.00
   20.00     24.00     -7.69  -999.99    -7.69      0.0000     -0.00 LINEAR  4.7758E-03   -164.31  0.0000E+00      0.00
   24.00     24.00     -6.17  -999.99    -6.17      0.0000     -0.00 LINEAR  5.6850E-03   -167.51  0.0000E+00      0.00
   28.00     24.00     -4.92  -999.99    -4.92      0.0000     -0.00 LINEAR  6.5693E-03   -170.77  0.0000E+00      0.00
   32.00     24.00     -3.85  -999.99    -3.85      0.0000     -0.00 LINEAR  7.4243E-03   -174.08  0.0000E+00      0.00
   36.00     24.00     -2.94  -999.99    -2.94      0.0000     -0.00 LINEAR  8.2459E-03   -177.42  0.0000E+00      0.00
   40.00     24.00     -2.15  -999.99    -2.15      0.0000     -0.00 LINEAR  9.0300E-03    179.22  0.0000E+00      0.00
   44.00     24.00     -1.47  -999.99    -1.47      0.0000     -0.00 LINEAR  9.7726E-03    175.87  0.0000E+00      0.00
   48.00     24.00     -0.87  -999.99    -0.87      0.0000     -0.00 LINEAR  1.0470E-02    172.54  0.0000E+00      0.00
   52.00     24.00     -0.35  -999.99    -0.35      0.0000     -0.00 LINEAR  1.1117E-02    169.24  0.0000E+00      0.00
   56.00     24.00      0.11  -999.99     0.11      0.0000     -0.00 LINEAR  1.1712E-02    165.99  0.0000E+00      0.00
   60.00     24.00      0.50  -999.99     0.50      0.0000     -0.00 LINEAR  1.2250E-02    162.80  0.0000E+00      0.00
   64.00     24.00      0.83  -999.99     0.83      0.0000     -0.00 LINEAR  1.2729E-02    159.70  0.0000E+00      0.00
   68.00     24.00      1.11  -999.99     1.11      0.0000     -0.00 LINEAR  1.3145E-02    156.70  0.0000E+00      0.00
   72.00     24.00      1.34  -999.99     1.34      0.0000     -0.00 LINEAR  1.3496E-02    153.81  0.0000E+00      0.00
   76.00     24.00      1.52  -999.99     1.52      0.0000     -0.00 LINEAR  1.3779E-02    151.04  0.0000E+00      0.00
   80.00     24.00      1.65  -999.99     1.65      0.0000     -0.00 LINEAR  1.3993E-02    148.41  0.0000E+00      0.00
   84.00     24.00      1.74  -999.99     1.74      0.0000     -0.00 LINEAR  1.4137E-02    145.94  0.0000E+00      0.00
   88.00     24.00      1.78  -999.99     1.78      0.0000     -0.00 LINEAR  1.4209E-02    143.63  0.0000E+00      0.00
   92.00     24.00      1.78  -999.99     1.78      0.0000     -0.00 LINEAR  1.4209E-02    141.50  0.0000E+00      0.00
   96.00     24.00      1.74  -999.99     1.74      0.0000     -0.00 LINEAR  1.4137E-02    139.55  0.0000E+00      0.00
  100.00     24.00      1.65  -999.99     1.65      0.0000     -0.00 LINEAR  1.3994E-02    137.79  0.0000E+00      0.00
  104.00     24.00      1.52  -999.99     1.52      0.0000     -0.00 LINEAR  1.3779E-02    136.24  0.0000E+00      0.00
  108.00     24.00      1.34  -999.99     1.34      0.0000     -0.00 LINEAR  1.3496E-02    134.91  0.0000E+00      0.00
  112.00     24.00      1.11  -999.99     1.11      0.0000     -0.00 LINEAR  1.3145E-02    133.79  0.0000E+00      0.00
  116.00     24.00      0.83  -999.99     0.83      0.0000     -0.00 LINEAR  1.2729E-02    132.89  0.0000E+00      0.00
  120.00     24.00      0.50  -999.99     0.50      0.0000     -0.00 LINEAR  1.2251E-02    132.22  0.0000E+00      0.00
  124.00     24.00      0.11  -999.99     0.11      0.0000     -0.00 LINEAR  1.1713E-02    131.78  0.0000E+00      0.00
  128.00     24.00     -0.35  -999.99    -0.35      0.0000     -0.00 LINEAR  1.1118E-02    131.58  0.0000E+00      0.00
  132.00     24.00     -0.87  -999.99    -0.87      0.0000     -0.00 LINEAR  1.0470E-02    131.61  0.0000E+00      0.00
  136.00     24.00     -1.47  -999.99    -1.47      0.0000     -0.00 LINEAR  9.7735E-03    131.87  0.0000E+00      0.00
  140.00     24.00     -2.15  -999.99    -2.15      0.0000     -0.00 LINEAR  9.0309E-03    132.36  0.0000E+00      0.00
  144.00     24.00     -2.94  -999.99    -2.94      0.0000     -0.00 LINEAR  8.2468E-03    133.09  0.0000E+00      0.00
  148.00     24.00     -3.85  -999.99    -3.85      0.0000     -0.00 LINEAR  7.4251E-03    134.04  0.0000E+00      0.00
  152.00     24.00     -4.92  -999.99    -4.92      0.0000     -0.00 LINEAR  6.5700E-03    135.22  0.0000E+00      0.00
  156.00     24.00     -6.17  -999.99    -6.17      0.0000     -0.00 LINEAR  5.6857E-03    136.61  0.0000E+00      0.00
  160.00     24.00     -7.68  -999.99    -7.68      0.0000     -0.00 LINEAR  4.7763E-03    138.21  0.0000E+00      0.00
  164.00     24.00     -9.57  -999.99    -9.57      0.0000     -0.00 LINEAR  3.8461E-03    140.01  0.0000E+00      0.00
  168.00     24.00    -12.02  -999.99   -12.02      0.0000     -0.00 LINEAR  2.8991E-03    142.01  0.0000E+00      0.00
  172.00     24.00    -15.51  -999.99   -15.51      0.0000     -0.00 LINEAR  1.9397E-03    144.19  0.0000E+00      0.00
  176.00     24.00    -21.51  -999.99   -21.51      0.0000     -0.00 LINEAR  9.7192E-04    146.54  0.0000E+00      0.00
  180.00     24.00   -999.99  -999.99  -999.99      0.0000      0.00         1.4220E-13    -30.95  0.0000E+00      0.00
    0.00     28.00   -999.99  -999.99  -999.99      0.0000      0.00         0.0000E+00      0.00  0.0000E+00      0.00
    4.00     28.00    -21.51  -999.99   -21.51      0.0000     -0.00 LINEAR  9.7180E-04   -151.96  0.0000E+00      0.00
    8.00     28.00    -15.51  -999.99   -15.51      0.0000     -0.00 LINEAR  1.9394E-03   -154.28  0.0000E+00      0.00
   12.00     28.00    -12.02  -999.99   -12.02      0.0000     -0.00 LINEAR  2.8988E-03   -156.73  0.0000E+00      0.00
   16.00     28.00     -9.57  -999.99    -9.57      0.0000     -0.00 LINEAR  3.8456E-03   -159.30  0.0000E+00      0.00
   20.00     28.00     -7.69  -999.99    -7.69      0.0000     -0.00 LINEAR  4.7758E-03   -161.97  0.0000E+00      0.00
   24.00     28.00     -6.17  -999.99    -6.17      0.0000     -0.00 LINEAR  5.6850E-03   -164.73  0.0000E+00      0.00
   28.00     28.00     -4.92  -999.99    -4.92      0.0000     -0.00 LINEAR  6.5693E-03   -167.56  0.0000E+00      0.00
   32.00     28.00     -3.85  -999.99    -3.85      0.0000     -0.00 LINEAR  7.4243E-03   -170.46  0.0000E+00      0.00
   36.00     28.00     -2.94  -999.99    -2.94      0.0000     -0.00 LINEAR  8.2459E-03   -173.41  0.0000E+00      0.00
   40.00     28.00     -2.15  -999.99    -2.15      0.0000     -0.00 LINEAR  9.0300E-03   -176.39  0.0000E+00      0.00
   44.00     28.00     -1.47  -999.99    -1.47      0.0000     -0.00 LINEAR  9.7726E-03   -179.38  0.0000E+00      0.00
   48.00     28.00     -0.87  -999.99    -0.87      0.0000     -0.00 LINEAR  1.0470E-02    177.61  0.0000E+00      0.00
   52.00     28.00     -0.35  -999.99    -0.35      0.0000     -0.00 LINEAR  1.1117E-02    174.62  0.0000E+00      0.00
   56.00     28.00      0.11  -999.99     0.11      0.0000     -0.00 LINEAR  1.1712E-02    171.65  0.0000E+00      0.00
   60.00     28.00      0.50  -999.99     0.50      0.0000     -0.00 LINEAR  1.2250E-02    168.72  0.0000E+00      0.00
   64.00     28.00      0.83  -999.99     0.83      0.0000     -0.00 LINEAR  1.2729E-02    165.84  0.0000E+00      0.00
   68.00     28.00      1.11  -999.99     1.11      0.0000     -0.00 LINEAR  1.3145E-02    163.03  0.0000E+00      0.00
   72.00     28.00      1.34  -999.99     1.34      0.0000     -0.00 LINEAR  1.3496E-02    160.30  0.0000E+00      0.00
   76.00     28.00      1.52  -999.99     1.52      0.0000     -0.00 LINEAR  1.3779E-02    157.67  0.0000E+00      0.00
   80.00     28.00      1.65  -999.99     1.65      0.0000     -0.00 LINEAR  1.3993E-02    155.14  0.0000E+00      0.00
   84.00     28.00      1.74  -999.99     1.74      0.0000     -0.00 LINEAR  1.4137E-02    152.74  0.0000E+00      0.00
   88.00     28.00      1.78  -999.99     1.78      0.0000     -0.00 LINEAR  1.4209E-02    150.46  0.0000E+00      0.00
   92.00     28.00      1.78  -999.99     1.78      0.0000     -0.00 LINEAR  1.4209E-02    148.32  0.0000E+00      0.00
   96.00     28.00      1.74  -999.99     1.74      0.0000     -0.00 LINEAR  1.4137E-02    146.34  0.0000E+00      0.00
  100.00     28.00      1.65  -999.99     1.65      0.0000     -0.00 LINEAR  1.3994E-02    144.52  0.0000E+00      0.00
  104.00     28.00      1.52  -999.99     1.52      0.0000     -0.00 LINEAR  1.3779E-02    142.87  0.0000E+00      0.00
  108.00     28.00      1.34  -999.99     1.34      0.0000     -0.00 LINEAR  1.3496E-02    141.40  0.0000E+00      0.00
  112.00     28.00      1.11  -999.99     1.11      0.0000     -0.00 LINEAR  1.3145E-02    140.12  0.0000E+00      0.00
  116.00     28.00      0.83  -999.99     0.83      0.0000     -0.00 LINEAR  1.2729E-02    139.03  0.0000E+00      0.00
  120.00     28.00      0.50  -999.99     0.50      0.0000     -0.00 LINEAR  1.2251E-02    138.14  0.0000E+00      0.00
  124.00     28.00      0.11  -999.99     0.11      0.0000     -0.00 LINEAR  1.1713E-02    137.45  0.0000E+00      0.00
  128.00     28.00     -0.35  -999.99    -0.35      0.0000     -0.00 LINEAR  1.1118E-02    136.96  0.0000E+00      0.00
  132.00     28.00     -0.87  -999.99    -0.87      0.0000     -0.00 LINEAR  1.0470E-02    136.68  0.0000E+00      0.00
  136.00     28.00     -1.47  -999.99    -1.47      0.0000     -0.00 LINEAR  9.7735E-03    136.61  0.0000E+00      0.00
  140.00     28.00     -2.15  -999.99    -2.15      0.0000     -0.00 LINEAR  9.0309E-03    136.76  0.0000E+00      0.00
  144.00     28.00     -2.94  -999.99    -2.94      0.0000     -0.00 LINEAR  8.2468E-03    137.11  0.0000E+00      0.00
  148.00     28.00     -3.85  -999.99    -3.85      0.0000     -0.00 LINEAR  7.4251E-03    137.66  0.0000E+00      0.00
  152.00     28.00     -4.92  -999.99    -4.92      0.0000     -0.00 LINEAR  6.5700E-03    138.43  0.0000E+00      0.00
  156.00     28.00     -6.17  -999.99    -6.17      0.0000     -0.00 LINEAR  5.6857E-03    139.39  0.0000E+00      0.00
  160.00     28.00     -7.68  -999.99    -7.68      0.0000     -0.00 LINEAR  4.7763E-03    140.55  0.0000E+00      0.00
  164.00     28.00     -9.57  -999.99    -9.57      0.0000     -0.00 LINEAR  3.8461E-03    141.90  0.0000E+00      0.00
  168.00     28.00    -12.02  -999.99   -12.02      0.0000     -0.00 LINEAR  2.8991E-03    143.43  0.0000E+00      0.00
  172.00     28.00    -15.51  -999.99   -15.51      0.0000     -0.00 LINEAR  1.9397E-03    145.14  0.0000E+00      0.00
  176.00     28.00    -21.51  -999.99   -21.51      0.0000     -0.00 LINEAR  9.7192E-04    147.02  0.0000E+00      0.00
  180.00     28.00   -999.99  -999.99  -999.99      0.0000      0.00         1.4220E-13    -30.95  0.0000E+00      0.00
    0.00     32.00   -999.99  -999.99  -999.99      0.0000      0.00         0.0000E+00      0.00  0.0000E+00      0.00
    4.00     32.00    -21.51  -999.99   -21.51      0.0000     -0.00 LINEAR  9.7180E-04   -151.47  0.0000E+00      0.00
    8.00     32.00    -15.51  -999.99   -15.51      0.0000     -0.00 LINEAR  1.9394E-03   -153.31  0.0000E+00      0.00
   12.00     32.00    -12.02  -999.99   -12.02      0.0000     -0.00 LINEAR  2.8988E-03   -155.28  0.0000E+00      0.00
   16.00     32.00     -9.57  -999.99    -9.57      0.0000     -0.00 LINEAR  3.8456E-03   -157.38  0.0000E+00      0.00
   20.00     32.00     -7.69  -999.99    -7.69      0.0000     -0.00 LINEAR  4.7758E-03   -159.58  0.0000E+00      0.00
   24.00     32.00     -6.17  -999.99    -6.17      0.0000     -0.00 LINEAR  5.6850E-03   -161.89  0.0000E+00      0.00
   28.00     32.00     -4.92  -999.99    -4.92      0.0000     -0.00 LINEAR  6.5693E-03   -164.29  0.0000E+00      0.00
   32.00     32.00     -3.85  -999.99    -3.85      0.0000     -0.00 LINEAR  7.4243E-03   -166.76  0.0000E+00      0.00
   36.00     32.00     -2.94  -999.99    -2.94      0.0000     -0.00 LINEAR  8.2459E-03   -169.30  0.0000E+00      0.00
   40.00     32.00     -2.15  -999.99    -2.15      0.0000     -0.00 LINEAR  9.0300E-03   -171.90  0.0000E+00      0.00
   44.00     32.00     -1.47  -999.99    -1.47      0.0000     -0.00 LINEAR  9.7726E-03   -174.54  0.0000E+00      0.00
   48.00     32.00     -0.87  -999.99    -0.87      0.0000     -0.00 LINEAR  1.0470E-02   -177.20  0.0000E+00      0.00
   52.00     32.00     -0.35  -999.99    -0.35      0.0000     -0.00 LINEAR  1.1117E-02   -179.88  0.0000E+00      0.00
   56.00     32.00      0.11  -999.99     0.11      0.0000     -0.00 LINEAR  1.1712E-02    177.44  0.0000E+00      0.00
   60.00     32.00      0.50  -999.99     0.50      0.0000     -0.00 LINEAR  1.2250E-02    174.76  0.0000E+00      0.00
   64.00     32.00      0.83  -999.99     0.83      0.0000     -0.00 LINEAR  1.2729E-02    172.12  0.0000E+00      0.00
   68.00     32.00      1.11  -999.99     1.11      0.0000     -0.00 LINEAR  1.3145E-02    169.50  0.0000E+00      0.00
   72.00     32.00      1.34  -999.99     1.34      0.0000     -0.00 LINEAR  1.3496E-02    166.94  0.0000E+00      0.00
   76.00     32.00      1.52  -999.99     1.52      0.0000     -0.00 LINEAR  1.3779E-02    164.44  0.0000E+00      0.00
   80.00     32.00      1.65  -999.99     1.65      0.0000     -0.00 LINEAR  1.3993E-02    162.02  0.0000E+00      0.00
   84.00     32.00      1.74  -999.99     1.74      0.0000     -0.00 LINEAR  1.4137E-02    159.68  0.0000E+00      0.00
   88.00     32.00      1.78  -999.99     1.78      0.0000     -0.00 LINEAR  1.4209E-02    157.43  0.0000E+00      0.00
   92.00     32.00      1.78  -999.99     1.78      0.0000     -0.00 LINEAR  1.4209E-02    155.30  0.0000E+00      0.00
   96.00     32.00      1.74  -999.99     1.74      0.0000     -0.00 LINEAR  1.4137E-02    153.28  0.0000E+00      0.00
  100.00     32.00      1.65  -999.99     1.65      0.0000     -0.00 LINEAR  1.3994E-02    151.40  0.0000E+00      0.00
  104.00     32.00      1.52  -999.99     1.52      0.0000     -0.00 LINEAR  1.3779E-02    149.65  0.0000E+00      0.00
  108.00     32.00      1.34  -999.99     1.34      0.0000     -0.00 LINEAR  1.3496E-02    148.04  0.0000E+00      0.00
  112.00     32.00      1.11  -999.99     1.11      0.0000     -0.00 LINEAR  1.3145E-02    146.59  0.0000E+00      0.00
  116.00     32.00      0.83  -999.99     0.83      0.0000     -0.00 LINEAR  1.2729E-02    145.30  0.0000E+00      0.00
  120.00     32.00      0.50  -999.99     0.50      0.0000     -0.00 LINEAR  1.2251E-02    144.18  0.0000E+00      0.00
  124.00     32.00      0.11  -999.99     0.11      0.0000     -0.00 LINEAR  1.1713E-02    143.23  0.0000E+00      0.00
  128.00     32.00     -0.35  -999.99    -0.35      0.0000     -0.00 LINEAR  1.1118E-02    142.46  0.0000E+00      0.00
  132.00     32.00     -0.87  -999.99    -0.87      0.0000     -0.00 LINEAR  1.0470E-02    141.87  0.0000E+00      0.00
  136.00     32.00     -1.47  -999.99    -1.47      0.0000     -0.00 LINEAR  9.7735E-03    141.46  0.0000E+00      0.00
  140.00     32.00     -2.15  -999.99    -2.15      0.0000     -0.00 LINEAR  9.0309E-03    141.24  0.0000E+00      0.00
  144.00     32.00     -2.94  -999.99    -2.94      0.0000     -0.00 LINEAR  8.2468E-03    141.21  0.0000E+00      0.00
  148.00     32.00     -3.85  -999.99    -3.85      0.0000     -0.00 LINEAR  7.4251E-03    141.36  0.0000E+00      0.00
  152.00     32.00     -4.92  -999.99    -4.92      0.0000     -0.00 LINEAR  6.5700E-03    141.70  0.0000E+00      0.00
  156.00     32.00     -6.17  -999.99    -6.17      0.0000     -0.00 LINEAR  5.6857E-03    142.23  0.0000E+00      0.00
  160.00     32.00     -7.68  -999.99    -7.68      0.0000     -0.00 LINEAR  4.7763E-03    142.93  0.0000E+00      0.00
  164.00     32.00     -9.57  -999.99    -9.57      0.0000     -0.00 LINEAR  3.8461E-03    143.82  0.0000E+00      0.00
  168.00     32.00    -12.02  -999.99   -12.02      0.0000     -0.00 LINEAR  2.8991E-03    144.88  0.0000E+00      0.00
  172.00     32.00    -15.51  -999.99   -15.51      0.0000     -0.00 LINEAR  1.9397E-03    146.11  0.0000E+00      0.00
  176.00     32.00    -21.51  -999.99   -21.51      0.0000     -0.00 LINEAR  9.7192E-04    147.50  0.0000E+00      0.00
  180.00     32.00   -999.99  -999.99  -999.99      0.0000      0.00         1.4220E-13    -30.95  0.0000E+00      0.00
    0.00     36.00   -999.99  -999.99  -999.99      0.0000      0.00         0.0000E+00      0.00  0.0000E+00      0.00
    4.00     36.00    -21.51  -999.99   -21.51      0.0000     -0.00 LINEAR  9.7180E-04   -150.98  0.0000E+00      0.00
    8.00     36.00    -15.51  -999.99   -15.51      0.0000     -0.00 LINEAR  1.9394E-03   -152.32  0.0000E+00      0.00
   12.00     36.00    -12.02  -999.99   -12.02      0.0000     -0.00 LINEAR  2.8988E-03   -153.81  0.0000E+00      0.00
   16.00     36.00     -9.57  -999.99    -9.57      0.0000     -0.00 LINEAR  3.8456E-03   -155.42  0.0000E+00      0.00
   20.00     36.00     -7.69  -999.99    -7.69      0.0000     -0.00 LINEAR  4.7758E-03   -157.16  0.0000E+00      0.00
   24.00     36.00     -6.17  -999.99    -6.17      0.0000     -0.00 LINEAR  5.6850E-03   -159.00  0.0000E+00      0.00
   28.00     36.00     -4.92  -999.99    -4.92      0.0000     -0.00 LINEAR  6.5693E-03   -160.96  0.0000E+00      0.00
   32.00     36.00     -3.85  -999.99    -3.85      0.0000     -0.00 LINEAR  7.4243E-03   -163.00  0.0000E+00      0.00
   36.00     36.00     -2.94  -999.99    -2.94      0.0000     -0.00 LINEAR  8.2459E-03   -165.13  0.0000E+00      0.00
   40.00     36.00     -2.15  -999.99    -2.15      0.0000     -0.00 LINEAR  9.0300E-03   -167.34  0.0000E+00      0.00
   44.00     36.00     -1.47  -999.99    -1.47      0.0000     -0.00 LINEAR  9.7726E-03   -169.61  0.0000E+00      0.00
   48.00     36.00     -0.87  -999.99    -0.87      0.0000     -0.00 LINEAR  1.0470E-02   -171.93  0.0000E+00      0.00
   52.00     36.00     -0.35  -999.99    -0.35      0.0000     -0.00 LINEAR  1.1117E-02   -174.29  0.0000E+00      0.00
   56.00     36.00      0.11  -999.99     0.11      0.0000     -0.00 LINEAR  1.1712E-02   -176.68  0.0000E+00      0.00
   60.00     36.00      0.50  -999.99     0.50      0.0000     -0.00 LINEAR  1.2250E-02   -179.09  0.0000E+00      0.00
   64.00     36.00      0.83  -999.99     0.83      0.0000     -0.00 LINEAR  1.2729E-02    178.49  0.0000E+00      0.00
   68.00     36.00      1.11  -999.99     1.11      0.0000     -0.00 LINEAR  1.3145E-02    176.08  0.0000E+00      0.00
   72.00     36.00      1.34  -999.99     1.34      0.0000     -0.00 LINEAR  1.3496E-02    173.69  0.0000E+00      0.00
   76.00     36.00      1.52  -999.99     1.52      0.0000     -0.00 LINEAR  1.3779E-02    171.32  0.0000E+00      0.00
   80.00     36.00      1.65  -999.99     1.65      0.0000     -0.00 LINEAR  1.3993E-02    169.00  0.0000E+00      0.00
   84.00     36.00      1.74  -999.99     1.74      0.0000     -0.00 LINEAR  1.4137E-02    166.73  0.0000E+00      0.00
   88.00     36.00      1.78  -999.99     1.78      0.0000     -0.00 LINEAR  1.4209E-02    164.52  0.0000E+00      0.00
   92.00     36.00      1.78  -999.99     1.78      0.0000     -0.00 LINEAR  1.4209E-02    162.39  0.0000E+00      0.00
   96.00     36.00      1.74  -999.99     1.74      0.0000     -0.00 LINEAR  1.4137E-02    160.34  0.0000E+00      0.00
  100.00     36.00      1.65  -999.99     1.65      0.0000     -0.00 LINEAR  1.3994E-02    158.38  0.0000E+00      0.00
  104.00     36.00      1.52  -999.99     1.52      0.0000     -0.00 LINEAR  1.3779E-02    156.53  0.0000E+00      0.00
  108.00     36.00      1.34  -999.99     1.34      0.0000     -0.00 LINEAR  1.3496E-02    154.79  0.0000E+00      0.00
  112.00     36.00      1.11  -999.99     1.11      0.0000     -0.00 LINEAR  1.3145E-02    153.17  0.0000E+00      0.00
  116.00     36.00      0.83  -999.99     0.83      0.0000     -0.00 LINEAR  1.2729E-02    151.68  0.0000E+00      0.00
  120.00     36.00      0.50  -999.99     0.50      0.0000     -0.00 LINEAR  1.2251E-02    150.32  0.0000E+00      0.00
  124.00     36.00      0.11  -999.99     0.11      0.0000     -0.00 LINEAR  1.1713E-02    149.11  0.0000E+00      0.00
  128.00     36.00     -0.35  -999.99    -0.35      0.0000     -0.00 LINEAR  1.1118E-02    148.05  0.0000E+00      0.00
  132.00     36.00     -0.87  -999.99    -0.87      0.0000     -0.00 LINEAR  1.0470E-02    147.14  0.0000E+00      0.00
  136.00     36.00     -1.47  -999.99    -1.47      0.0000     -0.00 LINEAR  9.7735E-03    146.39  0.0000E+00      0.00
  140.00     36.00     -2.15  -999.99    -2.15      0.0000     -0.00 LINEAR  9.0309E-03    145.80  0.0000E+00      0.00
  144.00     36.00     -2.94  -999.99    -2.94      0.0000     -0.00 LINEAR  8.2468E-03    145.38  0.0000E+00      0.00
  148.00     36.00     -3.85  -999.99    -3.85      0.0000     -0.00 LINEAR  7.4251E-03    145.12  0.0000E+00      0.00
  152.00     36.00     -4.92  -999.99    -4.92      0.0000     -0.00 LINEAR  6.5700E-03    145.03  0.0000E+00      0.00
  156.00     36.00     -6.17  -999.99    -6.17      0.0000     -0.00 LINEAR  5.6857E-03    145.11  0.0000E+00      0.00
  160.00     36.00     -7.68  -999.99    -7.68      0.0000     -0.00 LINEAR  4.7763E-03    145.36  0.0000E+00      0.00
  164.00     36.00     -9.57  -999.99    -9.57      0.0000     -0.00 LINEAR  3.8461E-03    145.78  0.0000E+00      0.00
  168.00     36.00    -12.02  -999.99   -12.02      0.0000     -0.00 LINEAR  2.8991E-03    146.36  0.0000E+00      0.00
  172.00     36.00    -15.51  -999.99   -15.51      0.0000     -0.00 LINEAR  1.9397E-03    147.10  0.0000E+00      0.00
  176.00     36.00    -21.51  -999.99   -21.51      0.0000     -0.00 LINEAR  9.7192E-04    148.00  0.0000E+00      0.00
  180.00     36.00   -999.99  -999.99  -999.99      0.0000      0.00         1.4220E-13    -30.95  0.0000E+00      0.00
    0.00     40.00   -999.99  -999.99  -999.99      0.0000      0.00         0.0000E+00      0.00  0.0000E+00      0.00
    4.00     40.00    -21.51  -999.99   -21.51      0.0000     -0.00 LINEAR  9.7180E-04   -150.48  0.0000E+00      0.00
    8.00     40.00    -15.51  -999.99   -15.51      0.0000     -0.00 LINEAR  1.9394E-03   -151.33  0.0000E+00      0.00
   12.00     40.00    -12.02  -999.99   -12.02      0.0000     -0.00 LINEAR  2.8988E-03   -152.32  0.0000E+00      0.00
   16.00     40.00     -9.57  -999.99    -9.57      0.0000     -0.00 LINEAR  3.8456E-03   -153.44  0.0000E+00      0.00
   20.00     40.00     -7.69  -999.99    -7.69      0.0000     -0.00 LINEAR  4.7758E-03   -154.70  0.0000E+00      0.00
   24.00     40.00     -6.17  -999.99    -6.17      0.0000     -0.00 LINEAR  5.6850E-03   -156.09  0.0000E+00      0.00
   28.00     40.00     -4.92  -999.99    -4.92      0.0000     -0.00 LINEAR  6.5693E-03   -157.59  0.0000E+00      0.00
   32.00     40.00     -3.85  -999.99    -3.85      0.0000     -0.00 LINEAR  7.4243E-03   -159.20  0.0000E+00      0.00
   36.00     40.00     -2.94  -999.99    -2.94      0.0000     -0.00 LINEAR  8.2459E-03   -160.92  0.0000E+00      0.00
   40.00     40.00     -2.15  -999.99    -2.15      0.0000     -0.00 LINEAR  9.0300E-03   -162.73  0.0000E+00      0.00
   44.00     40.00     -1.47  -999.99    -1.47      0.0000     -0.00 LINEAR  9.7726E-03   -164.63  0.0000E+00      0.00
   48.00     40.00     -0.87  -999.99    -0.87      0.0000     -0.00 LINEAR  1.0470E-02   -166.60  0.0000E+00      0.00
   52.00     40.00     -0.35  -999.99    -0.35      0.0000     -0.00 LINEAR  1.1117E-02   -168.64  0.0000E+00      0.00
   56.00     40.00      0.11  -999.99     0.11      0.0000     -0.00 LINEAR  1.1712E-02   -170.74  0.0000E+00      0.00
   60.00     40.00      0.50  -999.99     0.50      0.0000     -0.00 LINEAR  1.2250E-02   -172.88  0.0000E+00      0.00
   64.00     40.00      0.83  -999.99     0.83      0.0000     -0.00 LINEAR  1.2729E-02   -175.06  0.0000E+00      0.00
   68.00     40.00      1.11  -999.99     1.11      0.0000     -0.00 LINEAR  1.3145E-02   -177.27  0.0000E+00      0.00
   72.00     40.00      1.34  -999.99     1.34      0.0000     -0.00 LINEAR  1.3496E-02   -179.49  0.0000E+00      0.00
   76.00     40.00      1.52  -999.99     1.52      0.0000     -0.00 LINEAR  1.3779E-02    178.28  0.0000E+00      0.00
   80.00     40.00      1.65  -999.99     1.65      0.0000     -0.00 LINEAR  1.3993E-02    176.06  0.0000E+00      0.00
   84.00     40.00      1.74  -999.99     1.74      0.0000     -0.00 LINEAR  1.4137E-02    173.86  0.0000E+00      0.00
   88.00     40.00      1.78  -999.99     1.78      0.0000     -0.00 LINEAR  1.4209E-02    171.69  0.0000E+00      0.00
   92.00     40.00      1.78  -999.99     1.78      0.0000     -0.00 LINEAR  1.4209E-02    169.56  0.0000E+00      0.00
   96.00     40.00      1.74  -999.99     1.74      0.0000     -0.00 LINEAR  1.4137E-02    167.47  0.0000E+00      0.00
  100.00     40.00      1.65  -999.99     1.65      0.0000     -0.00 LINEAR  1.3994E-02    165.44  0.0000E+00      0.00
  104.00     40.00      1.52  -999.99     1.52      0.0000     -0.00 LINEAR  1.3779E-02    163.49  0.0000E+00      0.00
  108.00     40.00      1.34  -999.99     1.34      0.0000     -0.00 LINEAR  1.3496E-02    161.61  0.0000E+00      0.00
  112.00     40.00      1.11  -999.99     1.11      0.0000     -0.00 LINEAR  1.3145E-02    159.82  0.0000E+00      0.00
  116.00     40.00      0.83  -999.99     0.83      0.0000     -0.00 LINEAR  1.2729E-02    158.12  0.0000E+00      0.00
  120.00     40.00      0.50  -999.99     0.50      0.0000     -0.00 LINEAR  1.2251E-02    156.53  0.0000E+00      0.00
  124.00     40.00      0.11  -999.99     0.11      0.0000     -0.00 LINEAR  1.1713E-02    155.06  0.0000E+00      0.00
  128.00     40.00     -0.35  -999.99    -0.35      0.0000     -0.00 LINEAR  1.1118E-02    153.70  0.0000E+00      0.00
  132.00     40.00     -0.87  -999.99    -0.87      0.0000     -0.00 LINEAR  1.0470E-02    152.47  0.0000E+00      0.00
  136.00     40.00     -1.47  -999.99    -1.47      0.0000     -0.00 LINEAR  9.7735E-03    151.37  0.0000E+00      0.00
  140.00     40.00     -2.15  -999.99    -2.15      0.0000     -0.00 LINEAR  9.0309E-03    150.41  0.0000E+00      0.00
  144.00     40.00     -2.94  -999.99    -2.94      0.0000     -0.00 LINEAR  8.2468E-03    149.59  0.0000E+00      0.00
  148.00     40.00     -3.85  -999.99    -3.85      0.0000     -0.00 LINEAR  7.4251E-03    148.92  0.0000E+00      0.00
  152.00     40.00     -4.92  -999.99    -4.92      0.0000     -0.00 LINEAR  6.5700E-03    148.40  0.0000E+00      0.00
  156.00     40.00     -6.17  -999.99    -6.17      0.0000     -0.00 LINEAR  5.6857E-03    148.03  0.0000E+00      0.00
  160.00     40.00     -7.68  -999.99    -7.68      0.0000     -0.00 LINEAR  4.7763E-03    147.81  0.0000E+00      0.00
  164.00     40.00     -9.57  -999.99    -9.57      0.0000     -0.00 LINEAR  3.8461E-03    147.75  0.0000E+00      0.00
  168.00     40.00    -12.02  -999.99   -12.02      0.0000     -0.00 LINEAR  2.8991E-03    147.85  0.0000E+00      0.00
  172.00     40.00    -15.51  -999.99   -15.51      0.0000     -0.00 LINEAR  1.9397E-03    148.10  0.0000E+00      0.00
  176.00     40.00    -21.51  -999.99   -21.51      0.0000     -0.00 LINEAR  9.7192E-04    148.50  0.0000E+00      0.00
  180.00     40.00   -999.99  -999.99  -999.99      0.0000      0.00         1.4220E-13    -30.95  0.0000E+00      0.00
    0.00     44.00   -999.99  -999.99  -999.99      0.0000      0.00         0.0000E+00      0.00  0.0000E+00      0.00
    4.00     44.00    -21.51  -999.99   -21.51      0.0000     -0.00 LINEAR  9.7180E-04   -149.97  0.0000E+00      0.00
    8.00     44.00    -15.51  -999.99   -15.51      0.0000     -0.00 LINEAR  1.9394E-03   -150.32  0.0000E+00      0.00
   12.00     44.00    -12.02  -999.99   -12.02      0.0000     -0.00 LINEAR  2.8988E-03   -150.82  0.0000E+00      0.00
   16.00     44.00     -9.57  -999.99    -9.57      0.0000     -0.00 LINEAR  3.8456E-03   -151.45  0.0000E+00      0.00
   20.00     44.00     -7.69  -999.99    -7.69      0.0000     -0.00 LINEAR  4.7758E-03   -152.23  0.0000E+00      0.00
   24.00     44.00     -6.17  -999.99    -6.17      0.0000     -0.00 LINEAR  5.6850E-03   -153.15  0.0000E+00      0.00
   28.00     44.00     -4.92  -999.99    -4.92      0.0000     -0.00 LINEAR  6.5693E-03   -154.20  0.0000E+00      0.00
   32.00     44.00     -3.85  -999.99    -3.85      0.0000     -0.00 LINEAR  7.4243E-03   -155.38  0.0000E+00      0.00
   36.00     44.00     -2.94  -999.99    -2.94      0.0000     -0.00 LINEAR  8.2459E-03   -156.68  0.0000E+00      0.00
   40.00     44.00     -2.15  -999.99    -2.15      0.0000     -0.00 LINEAR  9.0300E-03   -158.09  0.0000E+00      0.00
   44.00     44.00     -1.47  -999.99    -1.47      0.0000     -0.00 LINEAR  9.7726E-03   -159.61  0.0000E+00      0.00
   48.00     44.00     -0.87  -999.99    -0.87      0.0000     -0.00 LINEAR  1.0470E-02   -161.24  0.0000E+00      0.00
   52.00     44.00     -0.35  -999.99    -0.35      0.0000     -0.00 LINEAR  1.1117E-02   -162.95  0.0000E+00      0.00
   56.00     44.00      0.11  -999.99     0.11      0.0000     -0.00 LINEAR  1.1712E-02   -164.76  0.0000E+00      0.00
   60.00     44.00      0.50  -999.99     0.50      0.0000     -0.00 LINEAR  1.2250E-02   -166.63  0.0000E+00      0.00
   64.00     44.00      0.83  -999.99     0.83      0.0000     -0.00 LINEAR  1.2729E-02   -168.58  0.0000E+00      0.00
   68.00     44.00      1.11  -999.99     1.11      0.0000     -0.00 LINEAR  1.3145E-02   -170.58  0.0000E+00      0.00
   72.00     44.00      1.34  -999.99     1.34      0.0000     -0.00 LINEAR  1.3496E-02   -172.63  0.0000E+00      0.00
   76.00     44.00      1.52  -999.99     1.52      0.0000     -0.00 LINEAR  1.3779E-02   -174.71  0.0000E+00      0.00
   80.00     44.00      1.65  -999.99     1.65      0.0000     -0.00 LINEAR  1.3993E-02   -176.83  0.0000E+00      0.00
   84.00     44.00      1.74  -999.99     1.74      0.0000     -0.00 LINEAR  1.4137E-02   -178.96  0.0000E+00      0.00
   88.00     44.00      1.78  -999.99     1.78      0.0000     -0.00 LINEAR  1.4209E-02    178.90  0.0000E+00      0.00
   92.00     44.00      1.78  -999.99     1.78      0.0000     -0.00 LINEAR  1.4209E-02    176.77  0.0000E+00      0.00
   96.00     44.00      1.74  -999.99     1.74      0.0000     -0.00 LINEAR  1.4137E-02    174.65  0.0000E+00      0.00
  100.00     44.00      1.65  -999.99     1.65      0.0000     -0.00 LINEAR  1.3994E-02    172.55  0.0000E+00      0.00
  104.00     44.00      1.52  -999.99     1.52      0.0000     -0.00 LINEAR  1.3779E-02    170.49  0.0000E+00      0.00
  108.00     44.00      1.34  -999.99     1.34      0.0000     -0.00 LINEAR  1.3496E-02    168.47  0.0000E+00      0.00
  112.00     44.00      1.11  -999.99     1.11      0.0000     -0.00 LINEAR  1.3145E-02    166.51  0.0000E+00      0.00
  116.00     44.00      0.83  -999.99     0.83      0.0000     -0.00 LINEAR  1.2729E-02    164.61  0.0000E+00      0.00
  120.00     44.00      0.50  -999.99     0.50      0.0000     -0.00 LINEAR  1.2251E-02    162.78  0.0000E+00      0.00
  124.00     44.00      0.11  -999.99     0.11      0.0000     -0.00 LINEAR  1.1713E-02    161.04  0.0000E+00      0.00
  128.00     44.00     -0.35  -999.99    -0.35      0.0000     -0.00 LINEAR  1.1118E-02    159.39  0.0000E+00      0.00
  132.00     44.00     -0.87  -999.99    -0.87      0.0000     -0.00 LINEAR  1.0470E-02    157.83  0.0000E+00      0.00
  136.00     44.00     -1.47  -999.99    -1.47      0.0000     -0.00 LINEAR  9.7735E-03    156.38  0.0000E+00      0.00
  140.00     44.00     -2.15  -999.99    -2.15      0.0000     -0.00 LINEAR  9.0309E-03    155.05  0.0000E+00      0.00
  144.00     44.00     -2.94  -999.99    -2.94      0.0000     -0.00 LINEAR  8.2468E-03    153.83  0.0000E+00      0.00
  148.00     44.00     -3.85  -999.99    -3.85      0.0000     -0.00 LINEAR  7.4251E-03    152.75  0.0000E+00      0.00
  152.00     44.00     -4.92  -999.99    -4.92      0.0000     -0.00 LINEAR  6.5700E-03    151.79  0.0000E+00      0.00
  156.00     44.00     -6.17  -999.99    -6.17      0.0000     -0.00 LINEAR  5.6857E-03    150.96  0.0000E+00      0.00
  160.00     44.00     -7.68  -999.99    -7.68      0.0000     -0.00 LINEAR  4.7763E-03    150.28  0.0000E+00      0.00
  164.00     44.00     -9.57  -999.99    -9.57      0.0000     -0.00 LINEAR  3.8461E-03    149.74  0.0000E+00      0.00
  168.00     44.00    -12.02  -999.99   -12.02      0.0000     -0.00 LINEAR  2.8991E-03    149.35  0.0000E+00      0.00
  172.00     44.00    -15.51  -999.99   -15.51      0.0000     -0.00 LINEAR  1.9397E-03    149.10  0.0000E+00      0.00
  176.00     44.00    -21.51  -999.99   -21.51      0.0000     -0.00 LINEAR  9.7192E-04    149.00  0.0000E+00      0.00
  180.00     44.00   -999.99  -999.99  -999.99      0.0000      0.00         1.4220E-13    -30.95  0.0000E+00      0.00
    0.00     48.00   -999.99  -999.99  -999.99      0.0000      0.00         0.0000E+00      0.00  0.0000E+00      0.00
    4.00     48.00    -21.51  -999.99   -21.51      0.0000     -0.00 LINEAR  9.7180E-04   -149.47  0.0000E+00      0.00
    8.00     48.00    -15.51  -999.99   -15.51      0.0000     -0.00 LINEAR  1.9394E-03   -149.32  0.0000E+00      0.00
   12.00     48.00    -12.02  -999.99   -12.02      0.0000     -0.00 LINEAR  2.8988E-03   -149.31  0.0000E+00      0.00
   16.00     48.00     -9.57  -999.99    -9.57      0.0000     -0.00 LINEAR  3.8456E-03   -149.46  0.0000E+00      0.00
   20.00     48.00     -7.69  -999.99    -7.69      0.0000     -0.00 LINEAR  4.7758E-03   -149.76  0.0000E+00      0.00
   24.00     48.00     -6.17  -999.99    -6.17      0.0000     -0.00 LINEAR  5.6850E-03   -150.21  0.0000E+00      0.00
   28.00     48.00     -4.92  -999.99    -4.92      0.0000     -0.00 LINEAR  6.5693E-03   -150.81  0.0000E+00      0.00
   32.00     48.00     -3.85  -999.99    -3.85      0.0000     -0.00 LINEAR  7.4243E-03   -151.55  0.0000E+00      0.00
   36.00     48.00     -2.94  -999.99    -2.94      0.0000     -0.00 LINEAR  8.2459E-03   -152.43  0.0000E+00      0.00
   40.00     48.00     -2.15  -999.99    -2.15      0.0000     -0.00 LINEAR  9.0300E-03   -153.45  0.0000E+00      0.00
   44.00     48.00     -1.47  -999.99    -1.47      0.0000     -0.00 LINEAR  9.7726E-03   -154.59  0.0000E+00      0.00
   48.00     48.00     -0.87  -999.99    -0.87      0.0000     -0.00 LINEAR  1.0470E-02   -155.87  0.0000E+00      0.00
   52.00     48.00     -0.35  -999.99    -0.35      0.0000     -0.00 LINEAR  1.1117E-02   -157.26  0.0000E+00      0.00
   56.00     48.00      0.11  -999.99     0.11      0.0000     -0.00 LINEAR  1.1712E-02   -158.77  0.0000E+00      0.00
   60.00     48.00      0.50  -999.99     0.50      0.0000     -0.00 LINEAR  1.2250E-02   -160.38  0.0000E+00      0.00
   64.00     48.00      0.83  -999.99     0.83      0.0000     -0.00 LINEAR  1.2729E-02   -162.08  0.0000E+00      0.00
   68.00     48.00      1.11  -999.99     1.11      0.0000     -0.00 LINEAR  1.3145E-02   -163.88  0.0000E+00      0.00
   72.00     48.00      1.34  -999.99     1.34      0.0000     -0.00 LINEAR  1.3496E-02   -165.76  0.0000E+00      0.00
   76.00     48.00      1.52  -999.99     1.52      0.0000     -0.00 LINEAR  1.3779E-02   -167.70  0.0000E+00      0.00
   80.00     48.00      1.65  -999.99     1.65      0.0000     -0.00 LINEAR  1.3993E-02   -169.71  0.0000E+00      0.00
   84.00     48.00      1.74  -999.99     1.74      0.0000     -0.00 LINEAR  1.4137E-02   -171.78  0.0000E+00      0.00
   88.00     48.00      1.78  -999.99     1.78      0.0000     -0.00 LINEAR  1.4209E-02   -173.88  0.0000E+00      0.00
   92.00     48.00      1.78  -999.99     1.78      0.0000     -0.00 LINEAR  1.4209E-02   -176.01  0.0000E+00      0.00
   96.00     48.00      1.74  -999.99     1.74      0.0000     -0.00 LINEAR  1.4137E-02   -178.17  0.0000E+00      0.00
  100.00     48.00      1.65  -999.99     1.65      0.0000     -0.00 LINEAR  1.3994E-02    179.67  0.0000E+00      0.00
  104.00     48.00      1.52  -999.99     1.52      0.0000     -0.00 LINEAR  1.3779E-02    177.50  0.0000E+00      0.00
  108.00     48.00      1.34  -999.99     1.34      0.0000     -0.00 LINEAR  1.3496E-02    175.34  0.0000E+00      0.00
  112.00     48.00      1.11  -999.99     1.11      0.0000     -0.00 LINEAR  1.3145E-02    173.21  0.0000E+00      0.00
  116.00     48.00      0.83  -999.99     0.83      0.0000     -0.00 LINEAR  1.2729E-02    171.10  0.0000E+00      0.00
  120.00     48.00      0.50  -999.99     0.50      0.0000     -0.00 LINEAR  1.2251E-02    169.04  0.0000E+00      0.00
  124.00     48.00      0.11  -999.99     0.11      0.0000     -0.00 LINEAR  1.1713E-02    167.03  0.0000E+00      0.00
  128.00     48.00     -0.35  -999.99    -0.35      0.0000     -0.00 LINEAR  1.1118E-02    165.08  0.0000E+00      0.00
  132.00     48.00     -0.87  -999.99    -0.87      0.0000     -0.00 LINEAR  1.0470E-02    163.20  0.0000E+00      0.00
  136.00     48.00     -1.47  -999.99    -1.47      0.0000     -0.00 LINEAR  9.7735E-03    161.40  0.0000E+00      0.00
  140.00     48.00     -2.15  -999.99    -2.15      0.0000     -0.00 LINEAR  9.0309E-03    159.69  0.0000E+00      0.00
  144.00     48.00     -2.94  -999.99    -2.94      0.0000     -0.00 LINEAR  8.2468E-03    158.08  0.0000E+00      0.00
  148.00     48.00     -3.85  -999.99    -3.85      0.0000     -0.00 LINEAR  7.4251E-03    156.57  0.0000E+00      0.00
  152.00     48.00     -4.92  -999.99    -4.92      0.0000     -0.00 LINEAR  6.5700E-03    155.18  0.0000E+00      0.00
  156.00     48.00     -6.17  -999.99    -6.17      0.0000     -0.00 LINEAR  5.6857E-03    153.90  0.0000E+00      0.00
  160.00     48.00     -7.68  -999.99    -7.68      0.0000     -0.00 LINEAR  4.7763E-03    152.75  0.0000E+00      0.00
  164.00     48.00     -9.57  -999.99    -9.57      0.0000     -0.00 LINEAR  3.8461E-03    151.73  0.0000E+00      0.00
  168.00     48.00    -12.02  -999.99   -12.02      0.0000     -0.00 LINEAR  2.8991E-03    150.85  0.0000E+00      0.00
  172.00     48.00    -15.51  -999.99   -15.51      0.0000     -0.00 LINEAR  1.9397E-03    150.11  0.0000E+00      0.00
[...]
   76.00    344.00      1.52  -999.99     1.52      0.0000     -0.00 LINEAR  1.3779E-02     99.18  0.0000E+00      0.00
   80.00    344.00      1.65  -999.99     1.65      0.0000     -0.00 LINEAR  1.3993E-02     95.78  0.0000E+00      0.00
   84.00    344.00      1.74  -999.99     1.74      0.0000     -0.00 LINEAR  1.4137E-02     92.79  0.0000E+00      0.00
   88.00    344.00      1.78  -999.99     1.78      0.0000     -0.00 LINEAR  1.4209E-02     90.22  0.0000E+00      0.00
   92.00    344.00      1.78  -999.99     1.78      0.0000      0.00 LINEAR  1.4209E-02     88.08  0.0000E+00      0.00
   96.00    344.00      1.74  -999.99     1.74      0.0000      0.00 LINEAR  1.4137E-02     86.40  0.0000E+00      0.00
  100.00    344.00      1.65  -999.99     1.65      0.0000      0.00 LINEAR  1.3994E-02     85.16  0.0000E+00      0.00
  104.00    344.00      1.52  -999.99     1.52      0.0000      0.00 LINEAR  1.3779E-02     84.39  0.0000E+00      0.00
  108.00    344.00      1.34  -999.99     1.34      0.0000      0.00 LINEAR  1.3496E-02     84.08  0.0000E+00      0.00
  112.00    344.00      1.11  -999.99     1.11      0.0000      0.00 LINEAR  1.3145E-02     84.23  0.0000E+00      0.00
  116.00    344.00      0.83  -999.99     0.83      0.0000      0.00 LINEAR  1.2729E-02     84.85  0.0000E+00      0.00
  120.00    344.00      0.50  -999.99     0.50      0.0000      0.00 LINEAR  1.2251E-02     85.94  0.0000E+00      0.00
  124.00    344.00      0.11  -999.99     0.11      0.0000      0.00 LINEAR  1.1713E-02     87.47  0.0000E+00      0.00
  128.00    344.00     -0.35  -999.99    -0.35      0.0000      0.00 LINEAR  1.1118E-02     89.46  0.0000E+00      0.00
  132.00    344.00     -0.87  -999.99    -0.87      0.0000     -0.00 LINEAR  1.0470E-02     91.89  0.0000E+00      0.00
  136.00    344.00     -1.47  -999.99    -1.47      0.0000     -0.00 LINEAR  9.7735E-03     94.74  0.0000E+00      0.00
  140.00    344.00     -2.15  -999.99    -2.15      0.0000     -0.00 LINEAR  9.0309E-03     98.01  0.0000E+00      0.00
  144.00    344.00     -2.94  -999.99    -2.94      0.0000     -0.00 LINEAR  8.2468E-03    101.68  0.0000E+00      0.00
  148.00    344.00     -3.85  -999.99    -3.85      0.0000     -0.00 LINEAR  7.4251E-03    105.72  0.0000E+00      0.00
  152.00    344.00     -4.92  -999.99    -4.92      0.0000     -0.00 LINEAR  6.5700E-03    110.13  0.0000E+00      0.00
  156.00    344.00     -6.17  -999.99    -6.17      0.0000     -0.00 LINEAR  5.6857E-03    114.87  0.0000E+00      0.00
  160.00    344.00     -7.68  -999.99    -7.68      0.0000     -0.00 LINEAR  4.7763E-03    119.93  0.0000E+00      0.00
  164.00    344.00     -9.57  -999.99    -9.57      0.0000     -0.00 LINEAR  3.8461E-03    125.28  0.0000E+00      0.00
  168.00    344.00    -12.02  -999.99   -12.02      0.0000     -0.00 LINEAR  2.8991E-03    130.90  0.0000E+00      0.00
  172.00    344.00    -15.51  -999.99   -15.51      0.0000     -0.00 LINEAR  1.9397E-03    136.75  0.0000E+00      0.00
  176.00    344.00    -21.51  -999.99   -21.51      0.0000     -0.00 LINEAR  9.7192E-04    142.81  0.0000E+00      0.00
  180.00    344.00   -999.99  -999.99  -999.99      0.0000      0.00         1.4220E-13    -30.95  0.0000E+00      0.00
    0.00    348.00   -999.99  -999.99  -999.99      0.0000      0.00         0.0000E+00      0.00  0.0000E+00      0.00
    4.00    348.00    -21.51  -999.99   -21.51      0.0000     -0.00 LINEAR  9.7180E-04   -155.90  0.0000E+00      0.00
    8.00    348.00    -15.51  -999.99   -15.51      0.0000     -0.00 LINEAR  1.9394E-03   -162.15  0.0000E+00      0.00
   12.00    348.00    -12.02  -999.99   -12.02      0.0000     -0.00 LINEAR  2.8988E-03   -168.49  0.0000E+00      0.00
   16.00    348.00     -9.57  -999.99    -9.57      0.0000     -0.00 LINEAR  3.8456E-03   -174.89  0.0000E+00      0.00
   20.00    348.00     -7.69  -999.99    -7.69      0.0000     -0.00 LINEAR  4.7758E-03    178.69  0.0000E+00      0.00
   24.00    348.00     -6.17  -999.99    -6.17      0.0000     -0.00 LINEAR  5.6850E-03    172.27  0.0000E+00      0.00
   28.00    348.00     -4.92  -999.99    -4.92      0.0000     -0.00 LINEAR  6.5693E-03    165.89  0.0000E+00      0.00
   32.00    348.00     -3.85  -999.99    -3.85      0.0000     -0.00 LINEAR  7.4243E-03    159.57  0.0000E+00      0.00
   36.00    348.00     -2.94  -999.99    -2.94      0.0000     -0.00 LINEAR  8.2459E-03    153.35  0.0000E+00      0.00
   40.00    348.00     -2.15  -999.99    -2.15      0.0000     -0.00 LINEAR  9.0300E-03    147.26  0.0000E+00      0.00
   44.00    348.00     -1.47  -999.99    -1.47      0.0000     -0.00 LINEAR  9.7726E-03    141.33  0.0000E+00      0.00
   48.00    348.00     -0.87  -999.99    -0.87      0.0000     -0.00 LINEAR  1.0470E-02    135.58  0.0000E+00      0.00
   52.00    348.00     -0.35  -999.99    -0.35      0.0000     -0.00 LINEAR  1.1117E-02    130.05  0.0000E+00      0.00
   56.00    348.00      0.11  -999.99     0.11      0.0000     -0.00 LINEAR  1.1712E-02    124.76  0.0000E+00      0.00
   60.00    348.00      0.50  -999.99     0.50      0.0000     -0.00 LINEAR  1.2250E-02    119.74  0.0000E+00      0.00
   64.00    348.00      0.83  -999.99     0.83      0.0000     -0.00 LINEAR  1.2729E-02    115.01  0.0000E+00      0.00
   68.00    348.00      1.11  -999.99     1.11      0.0000     -0.00 LINEAR  1.3145E-02    110.60  0.0000E+00      0.00
   72.00    348.00      1.34  -999.99     1.34      0.0000     -0.00 LINEAR  1.3496E-02    106.52  0.0000E+00      0.00
   76.00    348.00      1.52  -999.99     1.52      0.0000     -0.00 LINEAR  1.3779E-02    102.80  0.0000E+00      0.00
   80.00    348.00      1.65  -999.99     1.65      0.0000     -0.00 LINEAR  1.3993E-02     99.45  0.0000E+00      0.00
   84.00    348.00      1.74  -999.99     1.74      0.0000     -0.00 LINEAR  1.4137E-02     96.49  0.0000E+00      0.00
   88.00    348.00      1.78  -999.99     1.78      0.0000     -0.00 LINEAR  1.4209E-02     93.94  0.0000E+00      0.00
   92.00    348.00      1.78  -999.99     1.78      0.0000     -0.00 LINEAR  1.4209E-02     91.80  0.0000E+00      0.00
   96.00    348.00      1.74  -999.99     1.74      0.0000     -0.00 LINEAR  1.4137E-02     90.10  0.0000E+00      0.00
  100.00    348.00      1.65  -999.99     1.65      0.0000      0.00 LINEAR  1.3994E-02     88.83  0.0000E+00      0.00
  104.00    348.00      1.52  -999.99     1.52      0.0000      0.00 LINEAR  1.3779E-02     88.00  0.0000E+00      0.00
  108.00    348.00      1.34  -999.99     1.34      0.0000      0.00 LINEAR  1.3496E-02     87.62  0.0000E+00      0.00
  112.00    348.00      1.11  -999.99     1.11      0.0000      0.00 LINEAR  1.3145E-02     87.68  0.0000E+00      0.00
  116.00    348.00      0.83  -999.99     0.83      0.0000      0.00 LINEAR  1.2729E-02     88.20  0.0000E+00      0.00
  120.00    348.00      0.50  -999.99     0.50      0.0000      0.00 LINEAR  1.2251E-02     89.16  0.0000E+00      0.00
  124.00    348.00      0.11  -999.99     0.11      0.0000     -0.00 LINEAR  1.1713E-02     90.56  0.0000E+00      0.00
  128.00    348.00     -0.35  -999.99    -0.35      0.0000     -0.00 LINEAR  1.1118E-02     92.39  0.0000E+00      0.00
  132.00    348.00     -0.87  -999.99    -0.87      0.0000     -0.00 LINEAR  1.0470E-02     94.65  0.0000E+00      0.00
  136.00    348.00     -1.47  -999.99    -1.47      0.0000     -0.00 LINEAR  9.7735E-03     97.33  0.0000E+00      0.00
  140.00    348.00     -2.15  -999.99    -2.15      0.0000     -0.00 LINEAR  9.0309E-03    100.40  0.0000E+00      0.00
  144.00    348.00     -2.94  -999.99    -2.94      0.0000     -0.00 LINEAR  8.2468E-03    103.86  0.0000E+00      0.00
  148.00    348.00     -3.85  -999.99    -3.85      0.0000     -0.00 LINEAR  7.4251E-03    107.69  0.0000E+00      0.00
  152.00    348.00     -4.92  -999.99    -4.92      0.0000     -0.00 LINEAR  6.5700E-03    111.88  0.0000E+00      0.00
  156.00    348.00     -6.17  -999.99    -6.17      0.0000     -0.00 LINEAR  5.6857E-03    116.39  0.0000E+00      0.00
  160.00    348.00     -7.68  -999.99    -7.68      0.0000     -0.00 LINEAR  4.7763E-03    121.20  0.0000E+00      0.00
  164.00    348.00     -9.57  -999.99    -9.57      0.0000     -0.00 LINEAR  3.8461E-03    126.31  0.0000E+00      0.00
  168.00    348.00    -12.02  -999.99   -12.02      0.0000     -0.00 LINEAR  2.8991E-03    131.67  0.0000E+00      0.00
  172.00    348.00    -15.51  -999.99   -15.51      0.0000     -0.00 LINEAR  1.9397E-03    137.27  0.0000E+00      0.00
  176.00    348.00    -21.51  -999.99   -21.51      0.0000     -0.00 LINEAR  9.7192E-04    143.07  0.0000E+00      0.00
  180.00    348.00   -999.99  -999.99  -999.99      0.0000      0.00         1.4220E-13    -30.95  0.0000E+00      0.00
    0.00    352.00   -999.99  -999.99  -999.99      0.0000      0.00         0.0000E+00      0.00  0.0000E+00      0.00
    4.00    352.00    -21.51  -999.99   -21.51      0.0000     -0.00 LINEAR  9.7180E-04   -155.61  0.0000E+00      0.00
    8.00    352.00    -15.51  -999.99   -15.51      0.0000     -0.00 LINEAR  1.9394E-03   -161.58  0.0000E+00      0.00
   12.00    352.00    -12.02  -999.99   -12.02      0.0000     -0.00 LINEAR  2.8988E-03   -167.63  0.0000E+00      0.00
   16.00    352.00     -9.57  -999.99    -9.57      0.0000     -0.00 LINEAR  3.8456E-03   -173.75  0.0000E+00      0.00
   20.00    352.00     -7.69  -999.99    -7.69      0.0000     -0.00 LINEAR  4.7758E-03   -179.89  0.0000E+00      0.00
   24.00    352.00     -6.17  -999.99    -6.17      0.0000     -0.00 LINEAR  5.6850E-03    173.96  0.0000E+00      0.00
   28.00    352.00     -4.92  -999.99    -4.92      0.0000     -0.00 LINEAR  6.5693E-03    167.83  0.0000E+00      0.00
   32.00    352.00     -3.85  -999.99    -3.85      0.0000     -0.00 LINEAR  7.4243E-03    161.77  0.0000E+00      0.00
   36.00    352.00     -2.94  -999.99    -2.94      0.0000     -0.00 LINEAR  8.2459E-03    155.79  0.0000E+00      0.00
   40.00    352.00     -2.15  -999.99    -2.15      0.0000     -0.00 LINEAR  9.0300E-03    149.93  0.0000E+00      0.00
   44.00    352.00     -1.47  -999.99    -1.47      0.0000     -0.00 LINEAR  9.7726E-03    144.21  0.0000E+00      0.00
   48.00    352.00     -0.87  -999.99    -0.87      0.0000     -0.00 LINEAR  1.0470E-02    138.66  0.0000E+00      0.00
   52.00    352.00     -0.35  -999.99    -0.35      0.0000     -0.00 LINEAR  1.1117E-02    133.32  0.0000E+00      0.00
   56.00    352.00      0.11  -999.99     0.11      0.0000     -0.00 LINEAR  1.1712E-02    128.20  0.0000E+00      0.00
   60.00    352.00      0.50  -999.99     0.50      0.0000     -0.00 LINEAR  1.2250E-02    123.33  0.0000E+00      0.00
   64.00    352.00      0.83  -999.99     0.83      0.0000     -0.00 LINEAR  1.2729E-02    118.74  0.0000E+00      0.00
   68.00    352.00      1.11  -999.99     1.11      0.0000     -0.00 LINEAR  1.3145E-02    114.44  0.0000E+00      0.00
   72.00    352.00      1.34  -999.99     1.34      0.0000     -0.00 LINEAR  1.3496E-02    110.46  0.0000E+00      0.00
   76.00    352.00      1.52  -999.99     1.52      0.0000     -0.00 LINEAR  1.3779E-02    106.82  0.0000E+00      0.00
   80.00    352.00      1.65  -999.99     1.65      0.0000     -0.00 LINEAR  1.3993E-02    103.53  0.0000E+00      0.00
   84.00    352.00      1.74  -999.99     1.74      0.0000     -0.00 LINEAR  1.4137E-02    100.61  0.0000E+00      0.00
   88.00    352.00      1.78  -999.99     1.78      0.0000     -0.00 LINEAR  1.4209E-02     98.08  0.0000E+00      0.00
   92.00    352.00      1.78  -999.99     1.78      0.0000     -0.00 LINEAR  1.4209E-02     95.95  0.0000E+00      0.00
   96.00    352.00      1.74  -999.99     1.74      0.0000     -0.00 LINEAR  1.4137E-02     94.22  0.0000E+00      0.00
  100.00    352.00      1.65  -999.99     1.65      0.0000     -0.00 LINEAR  1.3994E-02     92.91  0.0000E+00      0.00
  104.00    352.00      1.52  -999.99     1.52      0.0000     -0.00 LINEAR  1.3779E-02     92.02  0.0000E+00      0.00
  108.00    352.00      1.34  -999.99     1.34      0.0000     -0.00 LINEAR  1.3496E-02     91.56  0.0000E+00      0.00
  112.00    352.00      1.11  -999.99     1.11      0.0000     -0.00 LINEAR  1.3145E-02     91.53  0.0000E+00      0.00
  116.00    352.00      0.83  -999.99     0.83      0.0000     -0.00 LINEAR  1.2729E-02     91.92  0.0000E+00      0.00
  120.00    352.00      0.50  -999.99     0.50      0.0000     -0.00 LINEAR  1.2251E-02     92.75  0.0000E+00      0.00
  124.00    352.00      0.11  -999.99     0.11      0.0000     -0.00 LINEAR  1.1713E-02     94.00  0.0000E+00      0.00
  128.00    352.00     -0.35  -999.99    -0.35      0.0000     -0.00 LINEAR  1.1118E-02     95.66  0.0000E+00      0.00
  132.00    352.00     -0.87  -999.99    -0.87      0.0000     -0.00 LINEAR  1.0470E-02     97.73  0.0000E+00      0.00
  136.00    352.00     -1.47  -999.99    -1.47      0.0000     -0.00 LINEAR  9.7735E-03    100.21  0.0000E+00      0.00
  140.00    352.00     -2.15  -999.99    -2.15      0.0000     -0.00 LINEAR  9.0309E-03    103.07  0.0000E+00      0.00
  144.00    352.00     -2.94  -999.99    -2.94      0.0000     -0.00 LINEAR  8.2468E-03    106.30  0.0000E+00      0.00
  148.00    352.00     -3.85  -999.99    -3.85      0.0000     -0.00 LINEAR  7.4251E-03    109.89  0.0000E+00      0.00
  152.00    352.00     -4.92  -999.99    -4.92      0.0000     -0.00 LINEAR  6.5700E-03    113.82  0.0000E+00      0.00
  156.00    352.00     -6.17  -999.99    -6.17      0.0000     -0.00 LINEAR  5.6857E-03    118.07  0.0000E+00      0.00
  160.00    352.00     -7.68  -999.99    -7.68      0.0000     -0.00 LINEAR  4.7763E-03    122.62  0.0000E+00      0.00
  164.00    352.00     -9.57  -999.99    -9.57      0.0000     -0.00 LINEAR  3.8461E-03    127.45  0.0000E+00      0.00
  168.00    352.00    -12.02  -999.99   -12.02      0.0000     -0.00 LINEAR  2.8991E-03    132.53  0.0000E+00      0.00
  172.00    352.00    -15.51  -999.99   -15.51      0.0000     -0.00 LINEAR  1.9397E-03    137.85  0.0000E+00      0.00
  176.00    352.00    -21.51  -999.99   -21.51      0.0000     -0.00 LINEAR  9.7192E-04    143.36  0.0000E+00      0.00
  180.00    352.00   -999.99  -999.99  -999.99      0.0000      0.00         1.4220E-13    -30.95  0.0000E+00      0.00
    0.00    356.00   -999.99  -999.99  -999.99      0.0000      0.00         0.0000E+00      0.00  0.0000E+00      0.00
    4.00    356.00    -21.51  -999.99   -21.51      0.0000     -0.00 LINEAR  9.7180E-04   -155.30  0.0000E+00      0.00
    8.00    356.00    -15.51  -999.99   -15.51      0.0000     -0.00 LINEAR  1.9394E-03   -160.94  0.0000E+00      0.00
   12.00    356.00    -12.02  -999.99   -12.02      0.0000     -0.00 LINEAR  2.8988E-03   -166.68  0.0000E+00      0.00
   16.00    356.00     -9.57  -999.99    -9.57      0.0000     -0.00 LINEAR  3.8456E-03   -172.49  0.0000E+00      0.00
   20.00    356.00     -7.69  -999.99    -7.69      0.0000     -0.00 LINEAR  4.7758E-03   -178.34  0.0000E+00      0.00
   24.00    356.00     -6.17  -999.99    -6.17      0.0000     -0.00 LINEAR  5.6850E-03    175.80  0.0000E+00      0.00
   28.00    356.00     -4.92  -999.99    -4.92      0.0000     -0.00 LINEAR  6.5693E-03    169.97  0.0000E+00      0.00
   32.00    356.00     -3.85  -999.99    -3.85      0.0000     -0.00 LINEAR  7.4243E-03    164.18  0.0000E+00      0.00
   36.00    356.00     -2.94  -999.99    -2.94      0.0000     -0.00 LINEAR  8.2459E-03    158.46  0.0000E+00      0.00
   40.00    356.00     -2.15  -999.99    -2.15      0.0000     -0.00 LINEAR  9.0300E-03    152.85  0.0000E+00      0.00
   44.00    356.00     -1.47  -999.99    -1.47      0.0000     -0.00 LINEAR  9.7726E-03    147.37  0.0000E+00      0.00
   48.00    356.00     -0.87  -999.99    -0.87      0.0000     -0.00 LINEAR  1.0470E-02    142.04  0.0000E+00      0.00
   52.00    356.00     -0.35  -999.99    -0.35      0.0000     -0.00 LINEAR  1.1117E-02    136.90  0.0000E+00      0.00
   56.00    356.00      0.11  -999.99     0.11      0.0000     -0.00 LINEAR  1.1712E-02    131.97  0.0000E+00      0.00
   60.00    356.00      0.50  -999.99     0.50      0.0000     -0.00 LINEAR  1.2250E-02    127.27  0.0000E+00      0.00
   64.00    356.00      0.83  -999.99     0.83      0.0000     -0.00 LINEAR  1.2729E-02    122.82  0.0000E+00      0.00
   68.00    356.00      1.11  -999.99     1.11      0.0000     -0.00 LINEAR  1.3145E-02    118.66  0.0000E+00      0.00
   72.00    356.00      1.34  -999.99     1.34      0.0000     -0.00 LINEAR  1.3496E-02    114.78  0.0000E+00      0.00
   76.00    356.00      1.52  -999.99     1.52      0.0000     -0.00 LINEAR  1.3779E-02    111.23  0.0000E+00      0.00
   80.00    356.00      1.65  -999.99     1.65      0.0000     -0.00 LINEAR  1.3993E-02    108.01  0.0000E+00      0.00
   84.00    356.00      1.74  -999.99     1.74      0.0000     -0.00 LINEAR  1.4137E-02    105.13  0.0000E+00      0.00
   88.00    356.00      1.78  -999.99     1.78      0.0000     -0.00 LINEAR  1.4209E-02    102.62  0.0000E+00      0.00
   92.00    356.00      1.78  -999.99     1.78      0.0000     -0.00 LINEAR  1.4209E-02    100.49  0.0000E+00      0.00
   96.00    356.00      1.74  -999.99     1.74      0.0000     -0.00 LINEAR  1.4137E-02     98.74  0.0000E+00      0.00
  100.00    356.00      1.65  -999.99     1.65      0.0000     -0.00 LINEAR  1.3994E-02     97.39  0.0000E+00      0.00
  104.00    356.00      1.52  -999.99     1.52      0.0000     -0.00 LINEAR  1.3779E-02     96.43  0.0000E+00      0.00
  108.00    356.00      1.34  -999.99     1.34      0.0000     -0.00 LINEAR  1.3496E-02     95.88  0.0000E+00      0.00
  112.00    356.00      1.11  -999.99     1.11      0.0000     -0.00 LINEAR  1.3145E-02     95.74  0.0000E+00      0.00
  116.00    356.00      0.83  -999.99     0.83      0.0000     -0.00 LINEAR  1.2729E-02     96.01  0.0000E+00      0.00
  120.00    356.00      0.50  -999.99     0.50      0.0000     -0.00 LINEAR  1.2251E-02     96.69  0.0000E+00      0.00
  124.00    356.00      0.11  -999.99     0.11      0.0000     -0.00 LINEAR  1.1713E-02     97.77  0.0000E+00      0.00
  128.00    356.00     -0.35  -999.99    -0.35      0.0000     -0.00 LINEAR  1.1118E-02     99.24  0.0000E+00      0.00
  132.00    356.00     -0.87  -999.99    -0.87      0.0000     -0.00 LINEAR  1.0470E-02    101.11  0.0000E+00      0.00
  136.00    356.00     -1.47  -999.99    -1.47      0.0000     -0.00 LINEAR  9.7735E-03    103.37  0.0000E+00      0.00
  140.00    356.00     -2.15  -999.99    -2.15      0.0000     -0.00 LINEAR  9.0309E-03    105.99  0.0000E+00      0.00
  144.00    356.00     -2.94  -999.99    -2.94      0.0000     -0.00 LINEAR  8.2468E-03    108.97  0.0000E+00      0.00
  148.00    356.00     -3.85  -999.99    -3.85      0.0000     -0.00 LINEAR  7.4251E-03    112.30  0.0000E+00      0.00
  152.00    356.00     -4.92  -999.99    -4.92      0.0000     -0.00 LINEAR  6.5700E-03    115.96  0.0000E+00      0.00
  156.00    356.00     -6.17  -999.99    -6.17      0.0000     -0.00 LINEAR  5.6857E-03    119.92  0.0000E+00      0.00
  160.00    356.00     -7.68  -999.99    -7.68      0.0000     -0.00 LINEAR  4.7763E-03    124.18  0.0000E+00      0.00
  164.00    356.00     -9.57  -999.99    -9.57      0.0000     -0.00 LINEAR  3.8461E-03    128.70  0.0000E+00      0.00
  168.00    356.00    -12.02  -999.99   -12.02      0.0000     -0.00 LINEAR  2.8991E-03    133.48  0.0000E+00      0.00
  172.00    356.00    -15.51  -999.99   -15.51      0.0000     -0.00 LINEAR  1.9397E-03    138.48  0.0000E+00      0.00
  176.00    356.00    -21.51  -999.99   -21.51      0.0000     -0.00 LINEAR  9.7192E-04    143.68  0.0000E+00      0.00
  180.00    356.00   -999.99  -999.99  -999.99      0.0000      0.00         1.4220E-13    -30.95  0.0000E+00      0.00








*****  DATA CARD N0.   5 EN   0     0     0     0  0.00000E+00  0.00000E+00  0.00000E+00  0.00000E+00  0.00000E+00  0.00000E+00

  TOTAL RUN TIME: 40 msec