


                                __________________________________________
                               |                                          |
                               | NUMERICAL ELECTROMAGNETICS CODE (nec2++) |
                               | Translated to 'C++' in Double Precision  |
                               |        Version 1.5.1 [2014-01-01]        |
                               |__________________________________________|



                                -------- STRUCTURE SPECIFICATION --------
                                COORDINATES MUST BE INPUT IN
                                METERS OR BE SCALED TO METERS
                                BEFORE STRUCTURE INPUT IS ENDED
  WIRE                                                                                 SEG FIRST  LAST  TAG
   No:        X1         Y1         Z1         X2         Y2         Z2       RADIUS   No:   SEG   SEG  No:

     1     -0.5080     0.5080     0.0000    -0.5080     0.5080     0.9800     0.0010     8     1     8    1
     STRUCTURE SCALED BY FACTOR:    1.00000

     TOTAL SEGMENTS USED: 8   SEGMENTS IN A SYMMETRIC CELL: 8   SYMMETRY FLAG: 0


                               ---------- SEGMENTATION DATA ----------
                                        COORDINATES IN METERS
                            I+ AND I- INDICATE THE SEGMENTS BEFORE AND AFTER I

   SEG    COORDINATES OF SEGM CENTER     SEGM    ORIENTATION ANGLES    WIRE    CONNECTION DATA   TAG
   No:       X         Y         Z      LENGTH     ALPHA      BETA    RADIUS    I-     I    I+   NO:
     1   -0.5080    0.5080    0.0612    0.1225   90.0000    0.0000    0.0010     0     1     2     1
     2   -0.5080    0.5080    0.1837    0.1225   90.0000    0.0000    0.0010     1     2     3     1
     3   -0.5080    0.5080    0.3063    0.1225   90.0000    0.0000    0.0010     2     3     4     1
     4   -0.5080    0.5080    0.4287    0.1225   90.0000    0.0000    0.0010     3     4     5     1
     5   -0.5080    0.5080    0.5513    0.1225   90.0000    0.0000    0.0010     4     5     6     1
     6   -0.5080    0.5080    0.6738    0.1225   90.0000    0.0000    0.0010     5     6     7     1
     7   -0.5080    0.5080    0.7963    0.1225   90.0000    0.0000    0.0010     6     7     8     1
     8   -0.5080    0.5080    0.9188    0.1225   90.0000    0.0000    0.0010     7     8     0     1



*****  DATA CARD N0.   1 GN  -1     0     0     0  0.00000E+00  0.00000E+00  0.00000E+00  0.00000E+00  0.00000E+00  0.00000E+00
*****  DATA CARD N0.   2 FR   0     1     0     0  1.00000E+02  1.00000E+01  0.00000E+00  0.00000E+00  0.00000E+00  0.00000E+00
*****  DATA CARD N0.   3 EX   0     1     1     0  1.00000E+00  0.00000E+00  0.00000E+00  0.00000E+00  0.00000E+00  0.00000E+00
*****  DATA CARD N0.   4 RP   0    46    90  1000  0.00000E+00  0.00000E+00  4.00000E+00  4.00000E+00  0.00000E+00  0.00000E+00


                               --------- FREQUENCY --------
                               FREQUENCY=  1.0000E+02 MHZ
                               WAVELENGTH= 2.9980E+00 METERS


                        APPROXIMATE INTEGRATION EMPLOYED FOR SEGMENTS
                        THAT ARE MORE THAN 1.000 WAVELENGTHS APART



                          ------ STRUCTURE IMPEDANCE LOADING ------
                                 THIS STRUCTURE IS NOT LOADED



                            -------- ANTENNA ENVIRONMENT --------
                            FREE SPACE



                             ---------- MATRIX TIMING ----------
                               FILL= 0 msec  FACTOR: 0 msec


                      ----- ANTENNA INPUT PARAMETERS -----
  TAG   SEG       VOLTAGE (VOLTS)         CURRENT (AMPS)         IMPEDANCE (OHMS)        ADMITTANCE (MHOS)     POWER
  NO.   NO.     REAL      IMAGINARY     REAL      IMAGINARY     REAL      IMAGINARY    REAL       IMAGINARY   (WATTS)
   1     1  1.0000E+00  0.0000E+00  1.1782E-05  4.2533E-04  6.5077E+01 -2.3493E+03  1.1782E-05  4.2533E-04  5.8910E-06







                        ----- CURRENTS AND LOCATION -----
                            DISTANCES IN WAVELENGTHS 

   SEG  TAG    COORDINATES OF SEGM CENTER     SEGM    ------------- CURRENT (AMPS) -------------
   No:  No:       X         Y         Z      LENGTH     REAL      IMAGINARY    MAGN        PHASE
     1    1   -0.1694    0.1694    0.0204   0.04086  1.1782E-05  4.2533E-04  4.2549E-04   88.413 
     2    1   -0.1694    0.1694    0.0613   0.04086  2.9137E-05  5.4667E-04  5.4745E-04   86.949 
     3    1   -0.1694    0.1694    0.1022   0.04086  4.0620E-05  5.3154E-04  5.3309E-04   85.630 
     4    1   -0.1694    0.1694    0.1430   0.04086  4.6409E-05  4.9504E-04  4.9721E-04   84.644 
     5    1   -0.1694    0.1694    0.1839   0.04086  4.6319E-05  4.2987E-04  4.3236E-04   83.850 
     6    1   -0.1694    0.1694    0.2247   0.04086  4.0383E-05  3.3759E-04  3.4000E-04   83.179 
     7    1   -0.1694    0.1694    0.2656   0.04086  2.8851E-05  2.2177E-04  2.2364E-04   82.588 
     8    1   -0.1694    0.1694    0.3065   0.04086  1.1619E-05  8.3274E-05  8.4081E-05   82.057 






                               ---------- POWER BUDGET ---------
                               INPUT POWER   =  5.8910E-06 Watts
                               RADIATED POWER=  5.8910E-06 Watts
                               STRUCTURE LOSS=  0.0000E+00 Watts
                               NETWORK LOSS  =  0.0000E+00 Watts
                               EFFICIENCY    =  100.00 Percent


                         ----- RADIATION PATTERNS -----
 ---- ANGLES -----     ----- POWER GAINS -----       ---- POLARIZATION ----   ---- E(THETA) ----    ----- E(PHI) ------
  THETA      PHI       VERTC   HORIZ   TOTAL       AXIAL      TILT  SENSE   MAGNITUDE    PHASE    MAGNITUDE     PHASE
 DEGREES   DEGREES        DB       DB       DB       RATIO   DEGREES            VOLTS/M   DEGREES     VOLTS/M   DEGREES
    0.00      0.00   -999.99  -999.99  -999.99      0.0000      0.00         0.0000E+00      0.00  0.0000E+00      0.00
    4.00      0.00    -22.16  -999.99   -22.16      0.0000     -0.00 LINEAR  1.4651E-03   -141.18  0.0000E+00      0.00
    8.00      0.00    -16.15  -999.99   -16.15      0.0000     -0.00 LINEAR  2.9280E-03   -145.76  0.0000E+00      0.00
   12.00      0.00    -12.64  -999.99   -12.64      0.0000     -0.00 LINEAR  4.3860E-03   -150.53  0.0000E+00      0.00
   16.00      0.00    -10.16  -999.99   -10.16      0.0000     -0.00 LINEAR  5.8363E-03   -155.46  0.0000E+00      0.00
   20.00      0.00     -8.24  -999.99    -8.24      0.0000     -0.00 LINEAR  7.2755E-03   -160.53  0.0000E+00      0.00
   24.00      0.00     -6.69  -999.99    -6.69      0.0000     -0.00 LINEAR  8.6996E-03   -165.72  0.0000E+00      0.00
   28.00      0.00     -5.39  -999.99    -5.39      0.0000     -0.00 LINEAR  1.0104E-02   -171.00  0.0000E+00      0.00
   32.00      0.00     -4.28  -999.99    -4.28      0.0000     -0.00 LINEAR  1.1482E-02   -176.35  0.0000E+00      0.00
   36.00      0.00     -3.32  -999.99    -3.32      0.0000     -0.00 LINEAR  1.2827E-02    178.27  0.0000E+00      0.00
   40.00      0.00     -2.48  -999.99    -2.48      0.0000     -0.00 LINEAR  1.4133E-02    172.86  0.0000E+00      0.00
   44.00      0.00     -1.74  -999.99    -1.74      0.0000     -0.00 LINEAR  1.5390E-02    167.47  0.0000E+00      0.00
   48.00      0.00     -1.08  -999.99    -1.08      0.0000     -0.00 LINEAR  1.6589E-02    162.11  0.0000E+00      0.00
   52.00      0.00     -0.51  -999.99    -0.51      0.0000     -0.00 LINEAR  1.7721E-02    156.81  0.0000E+00      0.00
   56.00      0.00     -0.01  -999.99    -0.01      0.0000     -0.00 LINEAR  1.8775E-02    151.60  0.0000E+00      0.00
   60.00      0.00      0.43  -999.99     0.43      0.0000     -0.00 LINEAR  1.9741E-02    146.50  0.0000E+00      0.00
   64.00      0.00      0.80  -999.99     0.80      0.0000     -0.00 LINEAR  2.0610E-02    141.53  0.0000E+00      0.00
   68.00      0.00      1.12  -999.99     1.12      0.0000     -0.00 LINEAR  2.1371E-02    136.73  0.0000E+00      0.00
   72.00      0.00      1.37  -999.99     1.37      0.0000     -0.00 LINEAR  2.2016E-02    132.11  0.0000E+00      0.00
   76.00      0.00      1.58  -999.99     1.58      0.0000     -0.00 LINEAR  2.2537E-02    127.70  0.0000E+00      0.00
   80.00      0.00      1.73  -999.99     1.73      0.0000     -0.00 LINEAR  2.2927E-02    123.52  0.0000E+00      0.00
   84.00      0.00      1.82  -999.99     1.82      0.0000     -0.00 LINEAR  2.3181E-02    119.59  0.0000E+00      0.00
   88.00      0.00      1.87  -999.99     1.87      0.0000     -0.00 LINEAR  2.3297E-02    115.93  0.0000E+00      0.00
   92.00      0.00      1.86  -999.99     1.86      0.0000     -0.00 LINEAR  2.3272E-02    112.56  0.0000E+00      0.00
   96.00      0.00      1.79  -999.99     1.79      0.0000     -0.00 LINEAR  2.3107E-02    109.49  0.0000E+00      0.00
  100.00      0.00      1.68  -999.99     1.68      0.0000     -0.00 LINEAR  2.2805E-02    106.74  0.0000E+00      0.00
  104.00      0.00      1.51  -999.99     1.51      0.0000     -0.00 LINEAR  2.2370E-02    104.33  0.0000E+00      0.00
  108.00      0.00      1.29  -999.99     1.29      0.0000     -0.00 LINEAR  2.1809E-02    102.27  0.0000E+00      0.00
  112.00      0.00      1.02  -999.99     1.02      0.0000     -0.00 LINEAR  2.1127E-02    100.57  0.0000E+00      0.00
  116.00      0.00      0.68  -999.99     0.68      0.0000     -0.00 LINEAR  2.0334E-02     99.23  0.0000E+00      0.00
  120.00      0.00      0.29  -999.99     0.29      0.0000     -0.00 LINEAR  1.9439E-02     98.27  0.0000E+00      0.00
  124.00      0.00     -0.16  -999.99    -0.16      0.0000     -0.00 LINEAR  1.8453E-02     97.69  0.0000E+00      0.00
  128.00      0.00     -0.68  -999.99    -0.68      0.0000     -0.00 LINEAR  1.7386E-02     97.48  0.0000E+00      0.00
  132.00      0.00     -1.26  -999.99    -1.26      0.0000     -0.00 LINEAR  1.6247E-02     97.66  0.0000E+00      0.00
  136.00      0.00     -1.93  -999.99    -1.93      0.0000     -0.00 LINEAR  1.5048E-02     98.22  0.0000E+00      0.00
  140.00      0.00     -2.68  -999.99    -2.68      0.0000     -0.00 LINEAR  1.3798E-02     99.16  0.0000E+00      0.00
  144.00      0.00     -3.54  -999.99    -3.54      0.0000     -0.00 LINEAR  1.2506E-02    100.47  0.0000E+00      0.00
  148.00      0.00     -4.51  -999.99    -4.51      0.0000     -0.00 LINEAR  1.1180E-02    102.15  0.0000E+00      0.00
  152.00      0.00     -5.63  -999.99    -5.63      0.0000     -0.00 LINEAR  9.8264E-03    104.18  0.0000E+00      0.00
  156.00      0.00     -6.94  -999.99    -6.94      0.0000     -0.00 LINEAR  8.4523E-03    106.56  0.0000E+00      0.00
  160.00      0.00     -8.50  -999.99    -8.50      0.0000     -0.00 LINEAR  7.0625E-03    109.27  0.0000E+00      0.00
  164.00      0.00    -10.42  -999.99   -10.42      0.0000     -0.00 LINEAR  5.6613E-03    112.30  0.0000E+00      0.00
  168.00      0.00    -12.91  -999.99   -12.91      0.0000     -0.00 LINEAR  4.2520E-03    115.63  0.0000E+00      0.00
  172.00      0.00    -16.42  -999.99   -16.42      0.0000     -0.00 LINEAR  2.8373E-03    119.26  0.0000E+00      0.00
  176.00      0.00    -22.44  -999.99   -22.44      0.0000     -0.00 LINEAR  1.4194E-03    123.15  0.0000E+00      0.00
  180.00      0.00   -999.99  -999.99  -999.99      0.0000      0.00         2.0756E-13    -52.71  0.0000E+00      0.00
    0.00      4.00   -999.99  -999.99  -999.99      0.0000      0.00         0.0000E+00      0.00  0.0000E+00      0.00
    4.00      4.00    -22.16  -999.99   -22.16      0.0000     -0.00 LINEAR  1.4651E-03   -140.88  0.0000E+00      0.00
    8.00      4.00    -16.15  -999.99   -16.15      0.0000     -0.00 LINEAR  2.9280E-03   -145.15  0.0000E+00      0.00
   12.00      4.00    -12.64  -999.99   -12.64      0.0000     -0.00 LINEAR  4.3860E-03   -149.61  0.0000E+00      0.00
   16.00      4.00    -10.16  -999.99   -10.16      0.0000     -0.00 LINEAR  5.8363E-03   -154.25  0.0000E+00      0.00
   20.00      4.00     -8.24  -999.99    -8.24      0.0000     -0.00 LINEAR  7.2755E-03   -159.03  0.0000E+00      0.00
   24.00      4.00     -6.69  -999.99    -6.69      0.0000     -0.00 LINEAR  8.6996E-03   -163.93  0.0000E+00      0.00
   28.00      4.00     -5.39  -999.99    -5.39      0.0000     -0.00 LINEAR  1.0104E-02   -168.93  0.0000E+00      0.00
   32.00      4.00     -4.28  -999.99    -4.28      0.0000     -0.00 LINEAR  1.1482E-02   -174.01  0.0000E+00      0.00
   36.00      4.00     -3.32  -999.99    -3.32      0.0000     -0.00 LINEAR  1.2827E-02   -179.15  0.0000E+00      0.00
   40.00      4.00     -2.48  -999.99    -2.48      0.0000     -0.00 LINEAR  1.4133E-02    175.69  0.0000E+00      0.00
   44.00      4.00     -1.74  -999.99    -1.74      0.0000     -0.00 LINEAR  1.5390E-02    170.53  0.0000E+00      0.00
   48.00      4.00     -1.08  -999.99    -1.08      0.0000     -0.00 LINEAR  1.6589E-02    165.38  0.0000E+00      0.00
   52.00      4.00     -0.51  -999.99    -0.51      0.0000     -0.00 LINEAR  1.7721E-02    160.28  0.0000E+00      0.00
   56.00      4.00     -0.01  -999.99    -0.01      0.0000     -0.00 LINEAR  1.8775E-02    155.25  0.0000E+00      0.00
   60.00      4.00      0.43  -999.99     0.43      0.0000     -0.00 LINEAR  1.9741E-02    150.31  0.0000E+00      0.00
   64.00      4.00      0.80  -999.99     0.80      0.0000     -0.00 LINEAR  2.0610E-02    145.49  0.0000E+00      0.00
   68.00      4.00      1.12  -999.99     1.12      0.0000     -0.00 LINEAR  2.1371E-02    140.81  0.0000E+00      0.00
   72.00      4.00      1.37  -999.99     1.37      0.0000     -0.00 LINEAR  2.2016E-02    136.30  0.0000E+00      0.00
   76.00      4.00      1.58  -999.99     1.58      0.0000     -0.00 LINEAR  2.2537E-02    131.97  0.0000E+00      0.00
   80.00      4.00      1.73  -999.99     1.73      0.0000     -0.00 LINEAR  2.2927E-02    127.86  0.0000E+00      0.00
   84.00      4.00      1.82  -999.99     1.82      0.0000     -0.00 LINEAR  2.3181E-02    123.97  0.0000E+00      0.00
   88.00      4.00      1.87  -999.99     1.87      0.0000     -0.00 LINEAR  2.3297E-02    120.33  0.0000E+00      0.00
   92.00      4.00      1.86  -999.99     1.86      0.0000     -0.00 LINEAR  2.3272E-02    116.96  0.0000E+00      0.00
   96.00      4.00      1.79  -999.99     1.79      0.0000     -0.00 LINEAR  2.3107E-02    113.87  0.0000E+00      0.00
  100.00      4.00      1.68  -999.99     1.68      0.0000     -0.00 LINEAR  2.2805E-02    111.08  0.0000E+00      0.00
  104.00      4.00      1.51  -999.99     1.51      0.0000     -0.00 LINEAR  2.2370E-02    108.61  0.0000E+00      0.00
  108.00      4.00      1.29  -999.99     1.29      0.0000     -0.00 LINEAR  2.1809E-02    106.46  0.0000E+00      0.00
  112.00      4.00      1.02  -999.99     1.02      0.0000     -0.00 LINEAR  2.1127E-02    104.65  0.0000E+00      0.00
  116.00      4.00      0.68  -999.99     0.68      0.0000     -0.00 LINEAR  2.0334E-02    103.19  0.0000E+00      0.00
  120.00      4.00      0.29  -999.99     0.29      0.0000     -0.00 LINEAR  1.9439E-02    102.08  0.0000E+00      0.00
  124.00      4.00     -0.16  -999.99    -0.16      0.0000     -0.00 LINEAR  1.8453E-02    101.34  0.0000E+00      0.00
  128.00      4.00     -0.68  -999.99    -0.68      0.0000     -0.00 LINEAR  1.7386E-02    100.95  0.0000E+00      0.00
  132.00      4.00     -1.26  -999.99    -1.26      0.0000     -0.00 LINEAR  1.6247E-02    100.94  0.0000E+00      0.00
  136.00      4.00     -1.93  -999.99    -1.93      0.0000     -0.00 LINEAR  1.5048E-02    101.28  0.0000E+00      0.00
  140.00      4.00     -2.68  -999.99    -2.68      0.0000     -0.00 LINEAR  1.3798E-02    101.99  0.0000E+00      0.00
  144.00      4.00     -3.54  -999.99    -3.54      0.0000     -0.00 LINEAR  1.2506E-02    103.06  0.0000E+00      0.00
  148.00      4.00     -4.51  -999.99    -4.51      0.0000     -0.00 LINEAR  1.1180E-02    104.48  0.0000E+00      0.00
  152.00      4.00     -5.63  -999.99    -5.63      0.0000     -0.00 LINEAR  9.8264E-03    106.25  0.0000E+00      0.00
  156.00      4.00     -6.94  -999.99    -6.94      0.0000     -0.00 LINEAR  8.4523E-03    108.35  0.0000E+00      0.00
  160.00      4.00     -8.50  -999.99    -8.50      0.0000     -0.00 LINEAR  7.0625E-03    110.78  0.0000E+00      0.00
  164.00      4.00    -10.42  -999.99   -10.42      0.0000     -0.00 LINEAR  5.6613E-03    113.51  0.0000E+00      0.00
  168.00      4.00    -12.91  -999.99   -12.91      0.0000     -0.00 LINEAR  4.2520E-03    116.55  0.0000E+00      0.00
  172.00      4.00    -16.42  -999.99   -16.42      0.0000     -0.00 LINEAR  2.8373E-03    119.87  0.0000E+00      0.00
  176.00      4.00    -22.44  -999.99   -22.44      0.0000     -0.00 LINEAR  1.4194E-03    123.45  0.0000E+00      0.00
  180.00      4.00   -999.99  -999.99  -999.99      0.0000      0.00         2.0756E-13    -52.71  0.0000E+00      0.00
    0.00      8.00   -999.99  -999.99  -999.99      0.0000      0.00         0.0000E+00      0.00  0.0000E+00      0.00
    4.00      8.00    -22.16  -999.99   -22.16      0.0000     -0.00 LINEAR  1.4651E-03   -140.55  0.0000E+00      0.00
    8.00      8.00    -16.15  -999.99   -16.15      0.0000     -0.00 LINEAR  2.9280E-03   -144.50  0.0000E+00      0.00
   12.00      8.00    -12.64  -999.99   -12.64      0.0000     -0.00 LINEAR  4.3860E-03   -148.64  0.0000E+00      0.00
   16.00      8.00    -10.16  -999.99   -10.16      0.0000     -0.00 LINEAR  5.8363E-03   -152.96  0.0000E+00      0.00
   20.00      8.00     -8.24  -999.99    -8.24      0.0000     -0.00 LINEAR  7.2755E-03   -157.42  0.0000E+00      0.00
   24.00      8.00     -6.69  -999.99    -6.69      0.0000     -0.00 LINEAR  8.6996E-03   -162.02  0.0000E+00      0.00
   28.00      8.00     -5.39  -999.99    -5.39      0.0000     -0.00 LINEAR  1.0104E-02   -166.73  0.0000E+00      0.00
   32.00      8.00     -4.28  -999.99    -4.28      0.0000     -0.00 LINEAR  1.1482E-02   -171.53  0.0000E+00      0.00
   36.00      8.00     -3.32  -999.99    -3.32      0.0000     -0.00 LINEAR  1.2827E-02   -176.39  0.0000E+00      0.00
   40.00      8.00     -2.48  -999.99    -2.48      0.0000     -0.00 LINEAR  1.4133E-02    178.70  0.0000E+00      0.00
   44.00      8.00     -1.74  -999.99    -1.74      0.0000     -0.00 LINEAR  1.5390E-02    173.78  0.0000E+00      0.00
   48.00      8.00     -1.08  -999.99    -1.08      0.0000     -0.00 LINEAR  1.6589E-02    168.86  0.0000E+00      0.00
   52.00      8.00     -0.51  -999.99    -0.51      0.0000     -0.00 LINEAR  1.7721E-02    163.97  0.0000E+00      0.00
   56.00      8.00     -0.01  -999.99    -0.01      0.0000     -0.00 LINEAR  1.8775E-02    159.13  0.0000E+00      0.00
   60.00      8.00      0.43  -999.99     0.43      0.0000     -0.00 LINEAR  1.9741E-02    154.36  0.0000E+00      0.00
   64.00      8.00      0.80  -999.99     0.80      0.0000     -0.00 LINEAR  2.0610E-02    149.70  0.0000E+00      0.00
   68.00      8.00      1.12  -999.99     1.12      0.0000     -0.00 LINEAR  2.1371E-02    145.15  0.0000E+00      0.00
   72.00      8.00      1.37  -999.99     1.37      0.0000     -0.00 LINEAR  2.2016E-02    140.75  0.0000E+00      0.00
   76.00      8.00      1.58  -999.99     1.58      0.0000     -0.00 LINEAR  2.2537E-02    136.51  0.0000E+00      0.00
   80.00      8.00      1.73  -999.99     1.73      0.0000     -0.00 LINEAR  2.2927E-02    132.46  0.0000E+00      0.00
   84.00      8.00      1.82  -999.99     1.82      0.0000     -0.00 LINEAR  2.3181E-02    128.62  0.0000E+00      0.00
   88.00      8.00      1.87  -999.99     1.87      0.0000     -0.00 LINEAR  2.3297E-02    125.01  0.0000E+00      0.00
   92.00      8.00      1.86  -999.99     1.86      0.0000     -0.00 LINEAR  2.3272E-02    121.63  0.0000E+00      0.00
   96.00      8.00      1.79  -999.99     1.79      0.0000     -0.00 LINEAR  2.3107E-02    118.52  0.0000E+00      0.00
  100.00      8.00      1.68  -999.99     1.68      0.0000     -0.00 LINEAR  2.2805E-02    115.69  0.0000E+00      0.00
  104.00      8.00      1.51  -999.99     1.51      0.0000     -0.00 LINEAR  2.2370E-02    113.15  0.0000E+00      0.00
  108.00      8.00      1.29  -999.99     1.29      0.0000     -0.00 LINEAR  2.1809E-02    110.91  0.0000E+00      0.00
  112.00      8.00      1.02  -999.99     1.02      0.0000     -0.00 LINEAR  2.1127E-02    108.99  0.0000E+00      0.00
  116.00      8.00      0.68  -999.99     0.68      0.0000     -0.00 LINEAR  2.0334E-02    107.40  0.0000E+00      0.00
  120.00      8.00      0.29  -999.99     0.29      0.0000     -0.00 LINEAR  1.9439E-02    106.14  0.0000E+00      0.00
  124.00      8.00     -0.16  -999.99    -0.16      0.0000     -0.00 LINEAR  1.8453E-02    105.22  0.0000E+00      0.00
  128.00      8.00     -0.68  -999.99    -0.68      0.0000     -0.00 LINEAR  1.7386E-02    104.64  0.0000E+00      0.00
  132.00      8.00     -1.26  -999.99    -1.26      0.0000     -0.00 LINEAR  1.6247E-02    104.41  0.0000E+00      0.00
  136.00      8.00     -1.93  -999.99    -1.93      0.0000     -0.00 LINEAR  1.5048E-02    104.53  0.0000E+00      0.00
  140.00      8.00     -2.68  -999.99    -2.68      0.0000     -0.00 LINEAR  1.3798E-02    105.00  0.0000E+00      0.00
  144.00      8.00     -3.54  -999.99    -3.54      0.0000     -0.00 LINEAR  1.2506E-02    105.81  0.0000E+00      0.00
  148.00      8.00     -4.51  -999.99    -4.51      0.0000     -0.00 LINEAR  1.1180E-02    106.96  0.0000E+00      0.00
  152.00      8.00     -5.63  -999.99    -5.63      0.0000     -0.00 LINEAR  9.8264E-03    108.44  0.0000E+00      0.00
  156.00      8.00     -6.94  -999.99    -6.94      0.0000     -0.00 LINEAR  8.4523E-03    110.25  0.0000E+00      0.00
  160.00      8.00     -8.50  -999.99    -8.50      0.0000     -0.00 LINEAR  7.0625E-03    112.38  0.0000E+00      0.00
  164.00      8.00    -10.42  -999.99   -10.42      0.0000     -0.00 LINEAR  5.6613E-03    114.80  0.0000E+00      0.00
  168.00      8.00    -12.91  -999.99   -12.91      0.0000     -0.00 LINEAR  4.2520E-03    117.52  0.0000E+00      0.00
  172.00      8.00    -16.42  -999.99   -16.42      0.0000     -0.00 LINEAR  2.8373E-03    120.52  0.0000E+00      0.00
  176.00      8.00    -22.44  -999.99   -22.44      0.0000     -0.00 LINEAR  1.4194E-03    123.78  0.0000E+00      0.00
  180.00      8.00   -999.99  -999.99  -999.99      0.0000      0.00         2.0756E-13    -52.71  0.0000E+00      0.00
    0.00     12.00   -999.99  -999.99  -999.99      0.0000      0.00         0.0000E+00      0.00  0.0000E+00      0.00
    4.00     12.00    -22.16  -999.99   -22.16      0.0000     -0.00 LINEAR  1.4651E-03   -140.21  0.0000E+00      0.00
    8.00     12.00    -16.15  -999.99   -16.15      0.0000     -0.00 LINEAR  2.9280E-03   -143.81  0.0000E+00      0.00
   12.00     12.00    -12.64  -999.99   -12.64      0.0000     -0.00 LINEAR  4.3860E-03   -147.62  0.0000E+00      0.00
   16.00     12.00    -10.16  -999.99   -10.16      0.0000     -0.00 LINEAR  5.8363E-03   -151.60  0.0000E+00      0.00
   20.00     12.00     -8.24  -999.99    -8.24      0.0000     -0.00 LINEAR  7.2755E-03   -155.74  0.0000E+00      0.00
   24.00     12.00     -6.69  -999.99    -6.69      0.0000     -0.00 LINEAR  8.6996E-03   -160.02  0.0000E+00      0.00
   28.00     12.00     -5.39  -999.99    -5.39      0.0000     -0.00 LINEAR  1.0104E-02   -164.42  0.0000E+00      0.00
   32.00     12.00     -4.28  -999.99    -4.28      0.0000     -0.00 LINEAR  1.1482E-02   -168.92  0.0000E+00      0.00
   36.00     12.00     -3.32  -999.99    -3.32      0.0000     -0.00 LINEAR  1.2827E-02   -173.50  0.0000E+00      0.00
   40.00     12.00     -2.48  -999.99    -2.48      0.0000     -0.00 LINEAR  1.4133E-02   -178.13  0.0000E+00      0.00
   44.00     12.00     -1.74  -999.99    -1.74      0.0000     -0.00 LINEAR  1.5390E-02    177.20  0.0000E+00      0.00
   48.00     12.00     -1.08  -999.99    -1.08      0.0000     -0.00 LINEAR  1.6589E-02    172.52  0.0000E+00      0.00
   52.00     12.00     -0.51  -999.99    -0.51      0.0000     -0.00 LINEAR  1.7721E-02    167.85  0.0000E+00      0.00
   56.00     12.00     -0.01  -999.99    -0.01      0.0000     -0.00 LINEAR  1.8775E-02    163.22  0.0000E+00      0.00
   60.00     12.00      0.43  -999.99     0.43      0.0000     -0.00 LINEAR  1.9741E-02    158.63  0.0000E+00      0.00
   64.00     12.00      0.80  -999.99     0.80      0.0000     -0.00 LINEAR  2.0610E-02    154.13  0.0000E+00      0.00
   68.00     12.00      1.12  -999.99     1.12      0.0000     -0.00 LINEAR  2.1371E-02    149.73  0.0000E+00      0.00
   72.00     12.00      1.37  -999.99     1.37      0.0000     -0.00 LINEAR  2.2016E-02    145.44  0.0000E+00      0.00
   76.00     12.00      1.58  -999.99     1.58      0.0000     -0.00 LINEAR  2.2537E-02    141.30  0.0000E+00      0.00
   80.00     12.00      1.73  -999.99     1.73      0.0000     -0.00 LINEAR  2.2927E-02    137.32  0.0000E+00      0.00
   84.00     12.00      1.82  -999.99     1.82      0.0000     -0.00 LINEAR  2.3181E-02    133.53  0.0000E+00      0.00
   88.00     12.00      1.87  -999.99     1.87      0.0000     -0.00 LINEAR  2.3297E-02    129.93  0.0000E+00      0.00
   92.00     12.00      1.86  -999.99     1.86      0.0000     -0.00 LINEAR  2.3272E-02    126.56  0.0000E+00      0.00
   96.00     12.00      1.79  -999.99     1.79      0.0000     -0.00 LINEAR  2.3107E-02    123.43  0.0000E+00      0.00
  100.00     12.00      1.68  -999.99     1.68      0.0000     -0.00 LINEAR  2.2805E-02    120.55  0.0000E+00      0.00
  104.00     12.00      1.51  -999.99     1.51      0.0000     -0.00 LINEAR  2.2370E-02    117.93  0.0000E+00      0.00
  108.00     12.00      1.29  -999.99     1.29      0.0000     -0.00 LINEAR  2.1809E-02    115.60  0.0000E+00      0.00
  112.00     12.00      1.02  -999.99     1.02      0.0000     -0.00 LINEAR  2.1127E-02    113.57  0.0000E+00      0.00
  116.00     12.00      0.68  -999.99     0.68      0.0000     -0.00 LINEAR  2.0334E-02    111.83  0.0000E+00      0.00
  120.00     12.00      0.29  -999.99     0.29      0.0000     -0.00 LINEAR  1.9439E-02    110.41  0.0000E+00      0.00
  124.00     12.00     -0.16  -999.99    -0.16      0.0000     -0.00 LINEAR  1.8453E-02    109.31  0.0000E+00      0.00
  128.00     12.00     -0.68  -999.99    -0.68      0.0000     -0.00 LINEAR  1.7386E-02    108.53  0.0000E+00      0.00
  132.00     12.00     -1.26  -999.99    -1.26      0.0000     -0.00 LINEAR  1.6247E-02    108.08  0.0000E+00      0.00
  136.00     12.00     -1.93  -999.99    -1.93      0.0000     -0.00 LINEAR  1.5048E-02    107.96  0.0000E+00      0.00
  140.00     12.00     -2.68  -999.99    -2.68      0.0000     -0.00 LINEAR  1.3798E-02    108.17  0.0000E+00      0.00
  144.00     12.00     -3.54  -999.99    -3.54      0.0000     -0.00 LINEAR  1.2506E-02    108.71  0.0000E+00      0.00
  148.00     12.00     -4.51  -999.99    -4.51      0.0000     -0.00 LINEAR  1.1180E-02    109.58  0.0000E+00      0.00
  152.00     12.00     -5.63  -999.99    -5.63      0.0000     -0.00 LINEAR  9.8264E-03    110.76  0.0000E+00      0.00
  156.00     12.00     -6.94  -999.99    -6.94      0.0000     -0.00 LINEAR  8.4523E-03    112.26  0.0000E+00      0.00
  160.00     12.00     -8.50  -999.99    -8.50      0.0000     -0.00 LINEAR  7.0625E-03    114.06  0.0000E+00      0.00
  164.00     12.00    -10.42  -999.99   -10.42      0.0000     -0.00 LINEAR  5.6613E-03    116.16  0.0000E+00      0.00
  168.00     12.00    -12.91  -999.99   -12.91      0.0000     -0.00 LINEAR  4.2520E-03    118.55  0.0000E+00      0.00
  172.00     12.00    -16.42  -999.99   -16.42      0.0000     -0.00 LINEAR  2.8373E-03    121.21  0.0000E+00      0.00
  176.00     12.00    -22.44  -999.99   -22.44      0.0000     -0.00 LINEAR  1.4194E-03    124.12  0.0000E+00      0.00
  180.00     12.00   -999.99  -999.99  -999.99      0.0000      0.00         2.0756E-13    -52.71  0.0000E+00      0.00
    0.00     16.00   -999.99  -999.99  -999.99      0.0000      0.00         0.0000E+00      0.00  0.0000E+00      0.00
    4.00     16.00    -22.16  -999.99   -22.16      0.0000     -0.00 LINEAR  1.4651E-03   -139.85  0.0000E+00      0.00
    8.00     16.00    -16.15  -999.99   -16.15      0.0000     -0.00 LINEAR  2.9280E-03   -143.09  0.0000E+00      0.00
   12.00     16.00    -12.64  -999.99   -12.64      0.0000     -0.00 LINEAR  4.3860E-03   -146.54  0.0000E+00      0.00
   16.00     16.00    -10.16  -999.99   -10.16      0.0000     -0.00 LINEAR  5.8363E-03   -150.17  0.0000E+00      0.00
   20.00     16.00     -8.24  -999.99    -8.24      0.0000     -0.00 LINEAR  7.2755E-03   -153.97  0.0000E+00      0.00
   24.00     16.00     -6.69  -999.99    -6.69      0.0000     -0.00 LINEAR  8.6996E-03   -157.92  0.0000E+00      0.00
   28.00     16.00     -5.39  -999.99    -5.39      0.0000     -0.00 LINEAR  1.0104E-02   -162.00  0.0000E+00      0.00
   32.00     16.00     -4.28  -999.99    -4.28      0.0000     -0.00 LINEAR  1.1482E-02   -166.18  0.0000E+00      0.00
   36.00     16.00     -3.32  -999.99    -3.32      0.0000     -0.00 LINEAR  1.2827E-02   -170.46  0.0000E+00      0.00
   40.00     16.00     -2.48  -999.99    -2.48      0.0000     -0.00 LINEAR  1.4133E-02   -174.81  0.0000E+00      0.00
   44.00     16.00     -1.74  -999.99    -1.74      0.0000     -0.00 LINEAR  1.5390E-02   -179.21  0.0000E+00      0.00
   48.00     16.00     -1.08  -999.99    -1.08      0.0000     -0.00 LINEAR  1.6589E-02    176.36  0.0000E+00      0.00
   52.00     16.00     -0.51  -999.99    -0.51      0.0000     -0.00 LINEAR  1.7721E-02    171.92  0.0000E+00      0.00
   56.00     16.00     -0.01  -999.99    -0.01      0.0000     -0.00 LINEAR  1.8775E-02    167.50  0.0000E+00      0.00
   60.00     16.00      0.43  -999.99     0.43      0.0000     -0.00 LINEAR  1.9741E-02    163.10  0.0000E+00      0.00
   64.00     16.00      0.80  -999.99     0.80      0.0000     -0.00 LINEAR  2.0610E-02    158.77  0.0000E+00      0.00
   68.00     16.00      1.12  -999.99     1.12      0.0000     -0.00 LINEAR  2.1371E-02    154.51  0.0000E+00      0.00
   72.00     16.00      1.37  -999.99     1.37      0.0000     -0.00 LINEAR  2.2016E-02    150.35  0.0000E+00      0.00
   76.00     16.00      1.58  -999.99     1.58      0.0000     -0.00 LINEAR  2.2537E-02    146.31  0.0000E+00      0.00
   80.00     16.00      1.73  -999.99     1.73      0.0000     -0.00 LINEAR  2.2927E-02    142.41  0.0000E+00      0.00
   84.00     16.00      1.82  -999.99     1.82      0.0000     -0.00 LINEAR  2.3181E-02    138.66  0.0000E+00      0.00
   88.00     16.00      1.87  -999.99     1.87      0.0000     -0.00 LINEAR  2.3297E-02    135.09  0.0000E+00      0.00
   92.00     16.00      1.86  -999.99     1.86      0.0000     -0.00 LINEAR  2.3272E-02    131.72  0.0000E+00      0.00
   96.00     16.00      1.79  -999.99     1.79      0.0000     -0.00 LINEAR  2.3107E-02    128.56  0.0000E+00      0.00
  100.00     16.00      1.68  -999.99     1.68      0.0000     -0.00 LINEAR  2.2805E-02    125.63  0.0000E+00      0.00
  104.00     16.00      1.51  -999.99     1.51      0.0000     -0.00 LINEAR  2.2370E-02    122.94  0.0000E+00      0.00
  108.00     16.00      1.29  -999.99     1.29      0.0000     -0.00 LINEAR  2.1809E-02    120.51  0.0000E+00      0.00
  112.00     16.00      1.02  -999.99     1.02      0.0000     -0.00 LINEAR  2.1127E-02    118.35  0.0000E+00      0.00
  116.00     16.00      0.68  -999.99     0.68      0.0000     -0.00 LINEAR  2.0334E-02    116.47  0.0000E+00      0.00
  120.00     16.00      0.29  -999.99     0.29      0.0000     -0.00 LINEAR  1.9439E-02    114.88  0.0000E+00      0.00
  124.00     16.00     -0.16  -999.99    -0.16      0.0000     -0.00 LINEAR  1.8453E-02    113.59  0.0000E+00      0.00
  128.00     16.00     -0.68  -999.99    -0.68      0.0000     -0.00 LINEAR  1.7386E-02    112.60  0.0000E+00      0.00
  132.00     16.00     -1.26  -999.99    -1.26      0.0000     -0.00 LINEAR  1.6247E-02    111.92  0.0000E+00      0.00
  136.00     16.00     -1.93  -999.99    -1.93      0.0000     -0.00 LINEAR  1.5048E-02    111.55  0.0000E+00      0.00
  140.00     16.00     -2.68  -999.99    -2.68      0.0000     -0.00 LINEAR  1.3798E-02    111.49  0.0000E+00      0.00
  144.00     16.00     -3.54  -999.99    -3.54      0.0000     -0.00 LINEAR  1.2506E-02    111.74  0.0000E+00      0.00
  148.00     16.00     -4.51  -999.99    -4.51      0.0000     -0.00 LINEAR  1.1180E-02    112.31  0.0000E+00      0.00
  152.00     16.00     -5.63  -999.99    -5.63      0.0000     -0.00 LINEAR  9.8264E-03    113.18  0.0000E+00      0.00
  156.00     16.00     -6.94  -999.99    -6.94      0.0000     -0.00 LINEAR  8.4523E-03    114.36  0.0000E+00      0.00
  160.00     16.00     -8.50  -999.99    -8.50      0.0000     -0.00 LINEAR  7.0625E-03    115.83  0.0000E+00      0.00
  164.00     16.00    -10.42  -999.99   -10.42      0.0000     -0.00 LINEAR  5.6613E-03    117.59  0.0000E+00      0.00
  168.00     16.00    -12.91  -999.99   -12.91      0.0000     -0.00 LINEAR  4.2520E-03    119.62  0.0000E+00      0.00
  172.00     16.00    -16.42  -999.99   -16.42      0.0000     -0.00 LINEAR  2.8373E-03    121.93  0.0000E+00      0.00
  176.00     16.00    -22.44  -999.99   -22.44      0.0000     -0.00 LINEAR  1.4194E-03    124.48  0.0000E+00      0.00
  180.00     16.00   -999.99  -999.99  -999.99      0.0000      0.00         2.0756E-13    -52.71  0.0000E+00      0.00
    0.00     20.00   -999.99  -999.99  -999.99      0.0000      0.00         0.0000E+00      0.00  0.0000E+00      0.00
    4.00     20.00    -22.16  -999.99   -22.16      0.0000     -0.00 LINEAR  1.4651E-03   -139.47  0.0000E+00      0.00
    8.00     20.00    -16.15  -999.99   -16.15      0.0000     -0.00 LINEAR  2.9280E-03   -142.35  0.0000E+00      0.00
   12.00     20.00    -12.64  -999.99   -12.64      0.0000     -0.00 LINEAR  4.3860E-03   -145.43  0.0000E+00      0.00
   16.00     20.00    -10.16  -999.99   -10.16      0.0000     -0.00 LINEAR  5.8363E-03   -148.70  0.0000E+00      0.00
   20.00     20.00     -8.24  -999.99    -8.24      0.0000     -0.00 LINEAR  7.2755E-03   -152.14  0.0000E+00      0.00
   24.00     20.00     -6.69  -999.99    -6.69      0.0000     -0.00 LINEAR  8.6996E-03   -155.74  0.0000E+00      0.00
   28.00     20.00     -5.39  -999.99    -5.39      0.0000     -0.00 LINEAR  1.0104E-02   -159.48  0.0000E+00      0.00
   32.00     20.00     -4.28  -999.99    -4.28      0.0000     -0.00 LINEAR  1.1482E-02   -163.34  0.0000E+00      0.00
   36.00     20.00     -3.32  -999.99    -3.32      0.0000     -0.00 LINEAR  1.2827E-02   -167.31  0.0000E+00      0.00
   40.00     20.00     -2.48  -999.99    -2.48      0.0000     -0.00 LINEAR  1.4133E-02   -171.36  0.0000E+00      0.00
   44.00     20.00     -1.74  -999.99    -1.74      0.0000     -0.00 LINEAR  1.5390E-02   -175.48  0.0000E+00      0.00
   48.00     20.00     -1.08  -999.99    -1.08      0.0000     -0.00 LINEAR  1.6589E-02   -179.65  0.0000E+00      0.00
   52.00     20.00     -0.51  -999.99    -0.51      0.0000     -0.00 LINEAR  1.7721E-02    176.15  0.0000E+00      0.00
   56.00     20.00     -0.01  -999.99    -0.01      0.0000     -0.00 LINEAR  1.8775E-02    171.94  0.0000E+00      0.00
   60.00     20.00      0.43  -999.99     0.43      0.0000     -0.00 LINEAR  1.9741E-02    167.75  0.0000E+00      0.00
   64.00     20.00      0.80  -999.99     0.80      0.0000     -0.00 LINEAR  2.0610E-02    163.59  0.0000E+00      0.00
   68.00     20.00      1.12  -999.99     1.12      0.0000     -0.00 LINEAR  2.1371E-02    159.49  0.0000E+00      0.00
   72.00     20.00      1.37  -999.99     1.37      0.0000     -0.00 LINEAR  2.2016E-02    155.45  0.0000E+00      0.00
   76.00     20.00      1.58  -999.99     1.58      0.0000     -0.00 LINEAR  2.2537E-02    151.51  0.0000E+00      0.00
   80.00     20.00      1.73  -999.99     1.73      0.0000     -0.00 LINEAR  2.2927E-02    147.69  0.0000E+00      0.00
   84.00     20.00      1.82  -999.99     1.82      0.0000     -0.00 LINEAR  2.3181E-02    144.00  0.0000E+00      0.00
   88.00     20.00      1.87  -999.99     1.87      0.0000     -0.00 LINEAR  2.3297E-02    140.46  0.0000E+00      0.00
   92.00     20.00      1.86  -999.99     1.86      0.0000     -0.00 LINEAR  2.3272E-02    137.08  0.0000E+00      0.00
   96.00     20.00      1.79  -999.99     1.79      0.0000     -0.00 LINEAR  2.3107E-02    133.90  0.0000E+00      0.00
  100.00     20.00      1.68  -999.99     1.68      0.0000     -0.00 LINEAR  2.2805E-02    130.91  0.0000E+00      0.00
  104.00     20.00      1.51  -999.99     1.51      0.0000     -0.00 LINEAR  2.2370E-02    128.15  0.0000E+00      0.00
  108.00     20.00      1.29  -999.99     1.29      0.0000     -0.00 LINEAR  2.1809E-02    125.61  0.0000E+00      0.00
  112.00     20.00      1.02  -999.99     1.02      0.0000     -0.00 LINEAR  2.1127E-02    123.33  0.0000E+00      0.00
  116.00     20.00      0.68  -999.99     0.68      0.0000     -0.00 LINEAR  2.0334E-02    121.29  0.0000E+00      0.00
  120.00     20.00      0.29  -999.99     0.29      0.0000     -0.00 LINEAR  1.9439E-02    119.53  0.0000E+00      0.00
  124.00     20.00     -0.16  -999.99    -0.16      0.0000     -0.00 LINEAR  1.8453E-02    118.03  0.0000E+00      0.00
  128.00     20.00     -0.68  -999.99    -0.68      0.0000     -0.00 LINEAR  1.7386E-02    116.82  0.0000E+00      0.00
  132.00     20.00     -1.26  -999.99    -1.26      0.0000     -0.00 LINEAR  1.6247E-02    115.90  0.0000E+00      0.00
  136.00     20.00     -1.93  -999.99    -1.93      0.0000     -0.00 LINEAR  1.5048E-02    115.27  0.0000E+00      0.00
  140.00     20.00     -2.68  -999.99    -2.68      0.0000     -0.00 LINEAR  1.3798E-02    114.94  0.0000E+00      0.00
  144.00     20.00     -3.54  -999.99    -3.54      0.0000     -0.00 LINEAR  1.2506E-02    114.90  0.0000E+00      0.00
  148.00     20.00     -4.51  -999.99    -4.51      0.0000     -0.00 LINEAR  1.1180E-02    115.15  0.0000E+00      0.00
  152.00     20.00     -5.63  -999.99    -5.63      0.0000     -0.00 LINEAR  9.8264E-03    115.70  0.0000E+00      0.00
  156.00     20.00     -6.94  -999.99    -6.94      0.0000     -0.00 LINEAR  8.4523E-03    116.54  0.0000E+00      0.00
  160.00     20.00     -8.50  -999.99    -8.50      0.0000     -0.00 LINEAR  7.0625E-03    117.66  0.0000E+00      0.00
  164.00     20.00    -10.42  -999.99   -10.42      0.0000     -0.00 LINEAR  5.6613E-03    119.06  0.0000E+00      0.00
  168.00     20.00    -12.91  -999.99   -12.91      0.0000     -0.00 LINEAR  4.2520E-03    120.74  0.0000E+00      0.00
  172.00     20.00    -16.42  -999.99   -16.42      0.0000     -0.00 LINEAR  2.8373E-03    122.67  0.0000E+00      0.00
  176.00     20.00    -22.44  -999.99   -22.44      0.0000     -0.00 LINEAR  1.4194E-03    124.86  0.0000E+00      0.00
  180.00     20.00   -999.99  -999.99  -999.99      0.0000      0.00         2.0756E-13    -52.71  0.0000E+00      0.00
    0.00     24.00   -999.99  -999.99  -999.99      0.0000      0.00         0.0000E+00      0.00  0.0000E+00      0.00
    4.00     24.00    -22.16  -999.99   -22.16      0.0000     -0.00 LINEAR  1.4651E-03   -139.09  0.0000E+00      0.00
    8.00     24.00    -16.15  -999.99   -16.15      0.0000     -0.00 LINEAR  2.9280E-03   -141.58  0.0000E+00      0.00
   12.00     24.00    -12.64  -999.99   -12.64      0.0000     -0.00 LINEAR  4.3860E-03   -144.28  0.0000E+00      0.00
   16.00     24.00    -10.16  -999.99   -10.16      0.0000     -0.00 LINEAR  5.8363E-03   -147.17  0.0000E+00      0.00
   20.00     24.00     -8.24  -999.99    -8.24      0.0000     -0.00 LINEAR  7.2755E-03   -150.24  0.0000E+00      0.00
   24.00     24.00     -6.69  -999.99    -6.69      0.0000     -0.00 LINEAR  8.6996E-03   -153.48  0.0000E+00      0.00
   28.00     24.00     -5.39  -999.99    -5.39      0.0000     -0.00 LINEAR  1.0104E-02   -156.87  0.0000E+00      0.00
   32.00     24.00     -4.28  -999.99    -4.28      0.0000     -0.00 LINEAR  1.1482E-02   -160.40  0.0000E+00      0.00
   36.00     24.00     -3.32  -999.99    -3.32      0.0000     -0.00 LINEAR  1.2827E-02   -164.05  0.0000E+00      0.00
   40.00     24.00     -2.48  -999.99    -2.48      0.0000     -0.00 LINEAR  1.4133E-02   -167.80  0.0000E+00      0.00
   44.00     24.00     -1.74  -999.99    -1.74      0.0000     -0.00 LINEAR  1.5390E-02   -171.63  0.0000E+00      0.00
   48.00     24.00     -1.08  -999.99    -1.08      0.0000     -0.00 LINEAR  1.6589E-02   -175.53  0.0000E+00      0.00
   52.00     24.00     -0.51  -999.99    -0.51      0.0000     -0.00 LINEAR  1.7721E-02   -179.48  0.0000E+00      0.00
   56.00     24.00     -0.01  -999.99    -0.01      0.0000     -0.00 LINEAR  1.8775E-02    176.54  0.0000E+00      0.00
   60.00     24.00      0.43  -999.99     0.43      0.0000     -0.00 LINEAR  1.9741E-02    172.55  0.0000E+00      0.00
   64.00     24.00      0.80  -999.99     0.80      0.0000     -0.00 LINEAR  2.0610E-02    168.57  0.0000E+00      0.00
   68.00     24.00      1.12  -999.99     1.12      0.0000     -0.00 LINEAR  2.1371E-02    164.62  0.0000E+00      0.00
   72.00     24.00      1.37  -999.99     1.37      0.0000     -0.00 LINEAR  2.2016E-02    160.72  0.0000E+00      0.00
   76.00     24.00      1.58  -999.99     1.58      0.0000     -0.00 LINEAR  2.2537E-02    156.89  0.0000E+00      0.00
   80.00     24.00      1.73  -999.99     1.73      0.0000     -0.00 LINEAR  2.2927E-02    153.15  0.0000E+00      0.00
   84.00     24.00      1.82  -999.99     1.82      0.0000     -0.00 LINEAR  2.3181E-02    149.51  0.0000E+00      0.00
   88.00     24.00      1.87  -999.99     1.87      0.0000     -0.00 LINEAR  2.3297E-02    145.99  0.0000E+00      0.00
   92.00     24.00      1.86  -999.99     1.86      0.0000     -0.00 LINEAR  2.3272E-02    142.62  0.0000E+00      0.00
   96.00     24.00      1.79  -999.99     1.79      0.0000     -0.00 LINEAR  2.3107E-02    139.41  0.0000E+00      0.00
  100.00     24.00      1.68  -999.99     1.68      0.0000     -0.00 LINEAR  2.2805E-02    136.37  0.0000E+00      0.00
  104.00     24.00      1.51  -999.99     1.51      0.0000     -0.00 LINEAR  2.2370E-02    133.53  0.0000E+00      0.00
  108.00     24.00      1.29  -999.99     1.29      0.0000     -0.00 LINEAR  2.1809E-02    130.89  0.0000E+00      0.00
  112.00     24.00      1.02  -999.99     1.02      0.0000     -0.00 LINEAR  2.1127E-02    128.46  0.0000E+00      0.00
  116.00     24.00      0.68  -999.99     0.68      0.0000     -0.00 LINEAR  2.0334E-02    126.27  0.0000E+00      0.00
  120.00     24.00      0.29  -999.99     0.29      0.0000     -0.00 LINEAR  1.9439E-02    124.33  0.0000E+00      0.00
  124.00     24.00     -0.16  -999.99    -0.16      0.0000     -0.00 LINEAR  1.8453E-02    122.63  0.0000E+00      0.00
  128.00     24.00     -0.68  -999.99    -0.68      0.0000     -0.00 LINEAR  1.7386E-02    121.19  0.0000E+00      0.00
  132.00     24.00     -1.26  -999.99    -1.26      0.0000     -0.00 LINEAR  1.6247E-02    120.02  0.0000E+00      0.00
  136.00     24.00     -1.93  -999.99    -1.93      0.0000     -0.00 LINEAR  1.5048E-02    119.12  0.0000E+00      0.00
  140.00     24.00     -2.68  -999.99    -2.68      0.0000     -0.00 LINEAR  1.3798E-02    118.50  0.0000E+00      0.00
  144.00     24.00     -3.54  -999.99    -3.54      0.0000     -0.00 LINEAR  1.2506E-02    118.16  0.0000E+00      0.00
  148.00     24.00     -4.51  -999.99    -4.51      0.0000     -0.00 LINEAR  1.1180E-02    118.09  0.0000E+00      0.00
  152.00     24.00     -5.63  -999.99    -5.63      0.0000     -0.00 LINEAR  9.8264E-03    118.30  0.0000E+00      0.00
  156.00     24.00     -6.94  -999.99    -6.94      0.0000     -0.00 LINEAR  8.4523E-03    118.79  0.0000E+00      0.00
  160.00     24.00     -8.50  -999.99    -8.50      0.0000     -0.00 LINEAR  7.0625E-03    119.56  0.0000E+00      0.00
  164.00     24.00    -10.42  -999.99   -10.42      0.0000     -0.00 LINEAR  5.6613E-03    120.59  0.0000E+00      0.00
  168.00     24.00    -12.91  -999.99   -12.91      0.0000     -0.00 LINEAR  4.2520E-03    121.89  0.0000E+00      0.00
  172.00     24.00    -16.42  -999.99   -16.42      0.0000     -0.00 LINEAR  2.8373E-03    123.44  0.0000E+00      0.00
  176.00     24.00    -22.44  -999.99   -22.44      0.0000     -0.00 LINEAR  1.4194E-03    125.25  0.0000E+00      0.00
  180.00     24.00   -999.99  -999.99  -999.99      0.0000      0.00         2.0756E-13    -52.71  0.0000E+00      0.00
    0.00     28.00   -999.99  -999.99  -999.99      0.0000      0.00         0.0000E+00      0.00  0.0000E+00      0.00
    4.00     28.00    -22.16  -999.99   -22.16      0.0000     -0.00 LINEAR  1.4651E-03   -138.69  0.0000E+00      0.00
    8.00     28.00    -16.15  -999.99   -16.15      0.0000     -0.00 LINEAR  2.9280E-03   -140.78  0.0000E+00      0.00
   12.00     28.00    -12.64  -999.99   -12.64      0.0000     -0.00 LINEAR  4.3860E-03   -143.09  0.0000E+00      0.00
   16.00     28.00    -10.16  -999.99   -10.16      0.0000     -0.00 LINEAR  5.8363E-03   -145.60  0.0000E+00      0.00
   20.00     28.00     -8.24  -999.99    -8.24      0.0000     -0.00 LINEAR  7.2755E-03   -148.29  0.0000E+00      0.00
   24.00     28.00     -6.69  -999.99    -6.69      0.0000     -0.00 LINEAR  8.6996E-03   -151.17  0.0000E+00      0.00
   28.00     28.00     -5.39  -999.99    -5.39      0.0000     -0.00 LINEAR  1.0104E-02   -154.20  0.0000E+00      0.00
   32.00     28.00     -4.28  -999.99    -4.28      0.0000     -0.00 LINEAR  1.1482E-02   -157.39  0.0000E+00      0.00
   36.00     28.00     -3.32  -999.99    -3.32      0.0000     -0.00 LINEAR  1.2827E-02   -160.70  0.0000E+00      0.00
   40.00     28.00     -2.48  -999.99    -2.48      0.0000     -0.00 LINEAR  1.4133E-02   -164.14  0.0000E+00      0.00
   44.00     28.00     -1.74  -999.99    -1.74      0.0000     -0.00 LINEAR  1.5390E-02   -167.68  0.0000E+00      0.00
   48.00     28.00     -1.08  -999.99    -1.08      0.0000     -0.00 LINEAR  1.6589E-02   -171.30  0.0000E+00      0.00
   52.00     28.00     -0.51  -999.99    -0.51      0.0000     -0.00 LINEAR  1.7721E-02   -175.00  0.0000E+00      0.00
   56.00     28.00     -0.01  -999.99    -0.01      0.0000     -0.00 LINEAR  1.8775E-02   -178.74  0.0000E+00      0.00
   60.00     28.00      0.43  -999.99     0.43      0.0000     -0.00 LINEAR  1.9741E-02    177.48  0.0000E+00      0.00
   64.00     28.00      0.80  -999.99     0.80      0.0000     -0.00 LINEAR  2.0610E-02    173.69  0.0000E+00      0.00
   68.00     28.00      1.12  -999.99     1.12      0.0000     -0.00 LINEAR  2.1371E-02    169.90  0.0000E+00      0.00
   72.00     28.00      1.37  -999.99     1.37      0.0000     -0.00 LINEAR  2.2016E-02    166.14  0.0000E+00      0.00
   76.00     28.00      1.58  -999.99     1.58      0.0000     -0.00 LINEAR  2.2537E-02    162.42  0.0000E+00      0.00
   80.00     28.00      1.73  -999.99     1.73      0.0000     -0.00 LINEAR  2.2927E-02    158.75  0.0000E+00      0.00
   84.00     28.00      1.82  -999.99     1.82      0.0000     -0.00 LINEAR  2.3181E-02    155.17  0.0000E+00      0.00
   88.00     28.00      1.87  -999.99     1.87      0.0000     -0.00 LINEAR  2.3297E-02    151.68  0.0000E+00      0.00
   92.00     28.00      1.86  -999.99     1.86      0.0000     -0.00 LINEAR  2.3272E-02    148.31  0.0000E+00      0.00
   96.00     28.00      1.79  -999.99     1.79      0.0000     -0.00 LINEAR  2.3107E-02    145.07  0.0000E+00      0.00
  100.00     28.00      1.68  -999.99     1.68      0.0000     -0.00 LINEAR  2.2805E-02    141.98  0.0000E+00      0.00
  104.00     28.00      1.51  -999.99     1.51      0.0000     -0.00 LINEAR  2.2370E-02    139.05  0.0000E+00      0.00
  108.00     28.00      1.29  -999.99     1.29      0.0000     -0.00 LINEAR  2.1809E-02    136.30  0.0000E+00      0.00
  112.00     28.00      1.02  -999.99     1.02      0.0000     -0.00 LINEAR  2.1127E-02    133.74  0.0000E+00      0.00
  116.00     28.00      0.68  -999.99     0.68      0.0000     -0.00 LINEAR  2.0334E-02    131.39  0.0000E+00      0.00
  120.00     28.00      0.29  -999.99     0.29      0.0000     -0.00 LINEAR  1.9439E-02    129.26  0.0000E+00      0.00
  124.00     28.00     -0.16  -999.99    -0.16      0.0000     -0.00 LINEAR  1.8453E-02    127.35  0.0000E+00      0.00
  128.00     28.00     -0.68  -999.99    -0.68      0.0000     -0.00 LINEAR  1.7386E-02    125.68  0.0000E+00      0.00
  132.00     28.00     -1.26  -999.99    -1.26      0.0000     -0.00 LINEAR  1.6247E-02    124.25  0.0000E+00      0.00
  136.00     28.00     -1.93  -999.99    -1.93      0.0000     -0.00 LINEAR  1.5048E-02    123.08  0.0000E+00      0.00
  140.00     28.00     -2.68  -999.99    -2.68      0.0000     -0.00 LINEAR  1.3798E-02    122.16  0.0000E+00      0.00
  144.00     28.00     -3.54  -999.99    -3.54      0.0000     -0.00 LINEAR  1.2506E-02    121.50  0.0000E+00      0.00
  148.00     28.00     -4.51  -999.99    -4.51      0.0000     -0.00 LINEAR  1.1180E-02    121.11  0.0000E+00      0.00
  152.00     28.00     -5.63  -999.99    -5.63      0.0000     -0.00 LINEAR  9.8264E-03    120.98  0.0000E+00      0.00
  156.00     28.00     -6.94  -999.99    -6.94      0.0000     -0.00 LINEAR  8.4523E-03    121.11  0.0000E+00      0.00
  160.00     28.00     -8.50  -999.99    -8.50      0.0000     -0.00 LINEAR  7.0625E-03    121.51  0.0000E+00      0.00
  164.00     28.00    -10.42  -999.99   -10.42      0.0000     -0.00 LINEAR  5.6613E-03    122.16  0.0000E+00      0.00
  168.00     28.00    -12.91  -999.99   -12.91      0.0000     -0.00 LINEAR  4.2520E-03    123.07  0.0000E+00      0.00
  172.00     28.00    -16.42  -999.99   -16.42      0.0000     -0.00 LINEAR  2.8373E-03    124.24  0.0000E+00      0.00
  176.00     28.00    -22.44  -999.99   -22.44      0.0000     -0.00 LINEAR  1.4194E-03    125.64  0.0000E+00      0.00
  180.00     28.00   -999.99  -999.99  -999.99      0.0000      0.00         2.0756E-13    -52.71  0.0000E+00      0.00
    0.00     32.00   -999.99  -999.99  -999.99      0.0000      0.00         0.0000E+00      0.00  0.0000E+00      0.00
    4.00     32.00    -22.16  -999.99   -22.16      0.0000     -0.00 LINEAR  1.4651E-03   -138.28  0.0000E+00      0.00
    8.00     32.00    -16.15  -999.99   -16.15      0.0000     -0.00 LINEAR  2.9280E-03   -139.97  0.0000E+00      0.00
   12.00     32.00    -12.64  -999.99   -12.64      0.0000     -0.00 LINEAR  4.3860E-03   -141.88  0.0000E+00      0.00
   16.00     32.00    -10.16  -999.99   -10.16      0.0000     -0.00 LINEAR  5.8363E-03   -144.00  0.0000E+00      0.00
   20.00     32.00     -8.24  -999.99    -8.24      0.0000     -0.00 LINEAR  7.2755E-03   -146.31  0.0000E+00      0.00
   24.00     32.00     -6.69  -999.99    -6.69      0.0000     -0.00 LINEAR  8.6996E-03   -148.80  0.0000E+00      0.00
   28.00     32.00     -5.39  -999.99    -5.39      0.0000     -0.00 LINEAR  1.0104E-02   -151.47  0.0000E+00      0.00
   32.00     32.00     -4.28  -999.99    -4.28      0.0000     -0.00 LINEAR  1.1482E-02   -154.30  0.0000E+00      0.00
   36.00     32.00     -3.32  -999.99    -3.32      0.0000     -0.00 LINEAR  1.2827E-02   -157.28  0.0000E+00      0.00
   40.00     32.00     -2.48  -999.99    -2.48      0.0000     -0.00 LINEAR  1.4133E-02   -160.40  0.0000E+00      0.00
   44.00     32.00     -1.74  -999.99    -1.74      0.0000     -0.00 LINEAR  1.5390E-02   -163.64  0.0000E+00      0.00
   48.00     32.00     -1.08  -999.99    -1.08      0.0000     -0.00 LINEAR  1.6589E-02   -166.98  0.0000E+00      0.00
   52.00     32.00     -0.51  -999.99    -0.51      0.0000     -0.00 LINEAR  1.7721E-02   -170.41  0.0000E+00      0.00
   56.00     32.00     -0.01  -999.99    -0.01      0.0000     -0.00 LINEAR  1.8775E-02   -173.92  0.0000E+00      0.00
   60.00     32.00      0.43  -999.99     0.43      0.0000     -0.00 LINEAR  1.9741E-02   -177.48  0.0000E+00      0.00
   64.00     32.00      0.80  -999.99     0.80      0.0000     -0.00 LINEAR  2.0610E-02    178.92  0.0000E+00      0.00
   68.00     32.00      1.12  -999.99     1.12      0.0000     -0.00 LINEAR  2.1371E-02    175.30  0.0000E+00      0.00
   72.00     32.00      1.37  -999.99     1.37      0.0000     -0.00 LINEAR  2.2016E-02    171.67  0.0000E+00      0.00
   76.00     32.00      1.58  -999.99     1.58      0.0000     -0.00 LINEAR  2.2537E-02    168.06  0.0000E+00      0.00
   80.00     32.00      1.73  -999.99     1.73      0.0000     -0.00 LINEAR  2.2927E-02    164.48  0.0000E+00      0.00
   84.00     32.00      1.82  -999.99     1.82      0.0000     -0.00 LINEAR  2.3181E-02    160.96  0.0000E+00      0.00
   88.00     32.00      1.87  -999.99     1.87      0.0000     -0.00 LINEAR  2.3297E-02    157.50  0.0000E+00      0.00
   92.00     32.00      1.86  -999.99     1.86      0.0000     -0.00 LINEAR  2.3272E-02    154.13  0.0000E+00      0.00
   96.00     32.00      1.79  -999.99     1.79      0.0000     -0.00 LINEAR  2.3107E-02    150.86  0.0000E+00      0.00
  100.00     32.00      1.68  -999.99     1.68      0.0000     -0.00 LINEAR  2.2805E-02    147.71  0.0000E+00      0.00
  104.00     32.00      1.51  -999.99     1.51      0.0000     -0.00 LINEAR  2.2370E-02    144.69  0.0000E+00      0.00
  108.00     32.00      1.29  -999.99     1.29      0.0000     -0.00 LINEAR  2.1809E-02    141.83  0.0000E+00      0.00
  112.00     32.00      1.02  -999.99     1.02      0.0000     -0.00 LINEAR  2.1127E-02    139.14  0.0000E+00      0.00
  116.00     32.00      0.68  -999.99     0.68      0.0000     -0.00 LINEAR  2.0334E-02    136.62  0.0000E+00      0.00
  120.00     32.00      0.29  -999.99     0.29      0.0000     -0.00 LINEAR  1.9439E-02    134.29  0.0000E+00      0.00
  124.00     32.00     -0.16  -999.99    -0.16      0.0000     -0.00 LINEAR  1.8453E-02    132.17  0.0000E+00      0.00
  128.00     32.00     -0.68  -999.99    -0.68      0.0000     -0.00 LINEAR  1.7386E-02    130.26  0.0000E+00      0.00
  132.00     32.00     -1.26  -999.99    -1.26      0.0000     -0.00 LINEAR  1.6247E-02    128.57  0.0000E+00      0.00
  136.00     32.00     -1.93  -999.99    -1.93      0.0000     -0.00 LINEAR  1.5048E-02    127.12  0.0000E+00      0.00
  140.00     32.00     -2.68  -999.99    -2.68      0.0000     -0.00 LINEAR  1.3798E-02    125.90  0.0000E+00      0.00
  144.00     32.00     -3.54  -999.99    -3.54      0.0000     -0.00 LINEAR  1.2506E-02    124.92  0.0000E+00      0.00
  148.00     32.00     -4.51  -999.99    -4.51      0.0000     -0.00 LINEAR  1.1180E-02    124.19  0.0000E+00      0.00
  152.00     32.00     -5.63  -999.99    -5.63      0.0000     -0.00 LINEAR  9.8264E-03    123.71  0.0000E+00      0.00
  156.00     32.00     -6.94  -999.99    -6.94      0.0000     -0.00 LINEAR  8.4523E-03    123.48  0.0000E+00      0.00
  160.00     32.00     -8.50  -999.99    -8.50      0.0000     -0.00 LINEAR  7.0625E-03    123.50  0.0000E+00      0.00
  164.00     32.00    -10.42  -999.99   -10.42      0.0000     -0.00 LINEAR  5.6613E-03    123.77  0.0000E+00      0.00
  168.00     32.00    -12.91  -999.99   -12.91      0.0000     -0.00 LINEAR  4.2520E-03    124.28  0.0000E+00      0.00
  172.00     32.00    -16.42  -999.99   -16.42      0.0000     -0.00 LINEAR  2.8373E-03    125.05  0.0000E+00      0.00
  176.00     32.00    -22.44  -999.99   -22.44      0.0000     -0.00 LINEAR  1.4194E-03    126.05  0.0000E+00      0.00
  180.00     32.00   -999.99  -999.99  -999.99      0.0000      0.00         2.0756E-13    -52.71  0.0000E+00      0.00
    0.00     36.00   -999.99  -999.99  -999.99      0.0000      0.00         0.0000E+00      0.00  0.0000E+00      0.00
    4.00     36.00    -22.16  -999.99   -22.16      0.0000     -0.00 LINEAR  1.4651E-03   -137.87  0.0000E+00      0.00
    8.00     36.00    -16.15  -999.99   -16.15      0.0000     -0.00 LINEAR  2.9280E-03   -139.15  0.0000E+00      0.00
   12.00     36.00    -12.64  -999.99   -12.64      0.0000     -0.00 LINEAR  4.3860E-03   -140.65  0.0000E+00      0.00
   16.00     36.00    -10.16  -999.99   -10.16      0.0000     -0.00 LINEAR  5.8363E-03   -142.37  0.0000E+00      0.00
   20.00     36.00     -8.24  -999.99    -8.24      0.0000     -0.00 LINEAR  7.2755E-03   -144.28  0.0000E+00      0.00
   24.00     36.00     -6.69  -999.99    -6.69      0.0000     -0.00 LINEAR  8.6996E-03   -146.40  0.0000E+00      0.00
   28.00     36.00     -5.39  -999.99    -5.39      0.0000     -0.00 LINEAR  1.0104E-02   -148.70  0.0000E+00      0.00
   32.00     36.00     -4.28  -999.99    -4.28      0.0000     -0.00 LINEAR  1.1482E-02   -151.17  0.0000E+00      0.00
   36.00     36.00     -3.32  -999.99    -3.32      0.0000     -0.00 LINEAR  1.2827E-02   -153.81  0.0000E+00      0.00
   40.00     36.00     -2.48  -999.99    -2.48      0.0000     -0.00 LINEAR  1.4133E-02   -156.60  0.0000E+00      0.00
   44.00     36.00     -1.74  -999.99    -1.74      0.0000     -0.00 LINEAR  1.5390E-02   -159.53  0.0000E+00      0.00
   48.00     36.00     -1.08  -999.99    -1.08      0.0000     -0.00 LINEAR  1.6589E-02   -162.59  0.0000E+00      0.00
   52.00     36.00     -0.51  -999.99    -0.51      0.0000     -0.00 LINEAR  1.7721E-02   -165.76  0.0000E+00      0.00
   56.00     36.00     -0.01  -999.99    -0.01      0.0000     -0.00 LINEAR  1.8775E-02   -169.02  0.0000E+00      0.00
   60.00     36.00      0.43  -999.99     0.43      0.0000     -0.00 LINEAR  1.9741E-02   -172.36  0.0000E+00      0.00
   64.00     36.00      0.80  -999.99     0.80      0.0000     -0.00 LINEAR  2.0610E-02   -175.77  0.0000E+00      0.00
   68.00     36.00      1.12  -999.99     1.12      0.0000     -0.00 LINEAR  2.1371E-02   -179.22  0.0000E+00      0.00
   72.00     36.00      1.37  -999.99     1.37      0.0000     -0.00 LINEAR  2.2016E-02    177.29  0.0000E+00      0.00
   76.00     36.00      1.58  -999.99     1.58      0.0000     -0.00 LINEAR  2.2537E-02    173.80  0.0000E+00      0.00
   80.00     36.00      1.73  -999.99     1.73      0.0000     -0.00 LINEAR  2.2927E-02    170.30  0.0000E+00      0.00
   84.00     36.00      1.82  -999.99     1.82      0.0000     -0.00 LINEAR  2.3181E-02    166.83  0.0000E+00      0.00
   88.00     36.00      1.87  -999.99     1.87      0.0000     -0.00 LINEAR  2.3297E-02    163.40  0.0000E+00      0.00
   92.00     36.00      1.86  -999.99     1.86      0.0000     -0.00 LINEAR  2.3272E-02    160.03  0.0000E+00      0.00
   96.00     36.00      1.79  -999.99     1.79      0.0000     -0.00 LINEAR  2.3107E-02    156.73  0.0000E+00      0.00
  100.00     36.00      1.68  -999.99     1.68      0.0000     -0.00 LINEAR  2.2805E-02    153.53  0.0000E+00      0.00
  104.00     36.00      1.51  -999.99     1.51      0.0000     -0.00 LINEAR  2.2370E-02    150.43  0.0000E+00      0.00
  108.00     36.00      1.29  -999.99     1.29      0.0000     -0.00 LINEAR  2.1809E-02    147.45  0.0000E+00      0.00
  112.00     36.00      1.02  -999.99     1.02      0.0000     -0.00 LINEAR  2.1127E-02    144.62  0.0000E+00      0.00
  116.00     36.00      0.68  -999.99     0.68      0.0000     -0.00 LINEAR  2.0334E-02    141.93  0.0000E+00      0.00
  120.00     36.00      0.29  -999.99     0.29      0.0000     -0.00 LINEAR  1.9439E-02    139.41  0.0000E+00      0.00
  124.00     36.00     -0.16  -999.99    -0.16      0.0000     -0.00 LINEAR  1.8453E-02    137.07  0.0000E+00      0.00
  128.00     36.00     -0.68  -999.99    -0.68      0.0000     -0.00 LINEAR  1.7386E-02    134.92  0.0000E+00      0.00
  132.00     36.00     -1.26  -999.99    -1.26      0.0000     -0.00 LINEAR  1.6247E-02    132.97  0.0000E+00      0.00
  136.00     36.00     -1.93  -999.99    -1.93      0.0000     -0.00 LINEAR  1.5048E-02    131.22  0.0000E+00      0.00
  140.00     36.00     -2.68  -999.99    -2.68      0.0000     -0.00 LINEAR  1.3798E-02    129.70  0.0000E+00      0.00
  144.00     36.00     -3.54  -999.99    -3.54      0.0000     -0.00 LINEAR  1.2506E-02    128.40  0.0000E+00      0.00
  148.00     36.00     -4.51  -999.99    -4.51      0.0000     -0.00 LINEAR  1.1180E-02    127.32  0.0000E+00      0.00
  152.00     36.00     -5.63  -999.99    -5.63      0.0000     -0.00 LINEAR  9.8264E-03    126.48  0.0000E+00      0.00
  156.00     36.00     -6.94  -999.99    -6.94      0.0000     -0.00 LINEAR  8.4523E-03    125.88  0.0000E+00      0.00
  160.00     36.00     -8.50  -999.99    -8.50      0.0000     -0.00 LINEAR  7.0625E-03    125.52  0.0000E+00      0.00
  164.00     36.00    -10.42  -999.99   -10.42      0.0000     -0.00 LINEAR  5.6613E-03    125.39  0.0000E+00      0.00
  168.00     36.00    -12.91  -999.99   -12.91      0.0000     -0.00 LINEAR  4.2520E-03    125.51  0.0000E+00      0.00
  172.00     36.00    -16.42  -999.99   -16.42      0.0000     -0.00 LINEAR  2.8373E-03    125.87  0.0000E+00      0.00
  176.00     36.00    -22.44  -999.99   -22.44      0.0000     -0.00 LINEAR  1.4194E-03    126.46  0.0000E+00      0.00
  180.00     36.00   -999.99  -999.99  -999.99      0.0000      0.00         2.0756E-13    -52.71  0.0000E+00      0.00
    0.00     40.00   -999.99  -999.99  -999.99      0.0000      0.00         0.0000E+00      0.00  0.0000E+00      0.00
    4.00     40.00    -22.16  -999.99   -22.16      0.0000     -0.00 LINEAR  1.4651E-03   -137.45  0.0000E+00      0.00
    8.00     40.00    -16.15  -999.99   -16.15      0.0000     -0.00 LINEAR  2.9280E-03   -138.32  0.0000E+00      0.00
   12.00     40.00    -12.64  -999.99   -12.64      0.0000     -0.00 LINEAR  4.3860E-03   -139.41  0.0000E+00      0.00
   16.00     40.00    -10.16  -999.99   -10.16      0.0000     -0.00 LINEAR  5.8363E-03   -140.72  0.0000E+00      0.00
   20.00     40.00     -8.24  -999.99    -8.24      0.0000     -0.00 LINEAR  7.2755E-03   -142.24  0.0000E+00      0.00
   24.00     40.00     -6.69  -999.99    -6.69      0.0000     -0.00 LINEAR  8.6996E-03   -143.97  0.0000E+00      0.00
   28.00     40.00     -5.39  -999.99    -5.39      0.0000     -0.00 LINEAR  1.0104E-02   -145.89  0.0000E+00      0.00
   32.00     40.00     -4.28  -999.99    -4.28      0.0000     -0.00 LINEAR  1.1482E-02   -148.00  0.0000E+00      0.00
   36.00     40.00     -3.32  -999.99    -3.32      0.0000     -0.00 LINEAR  1.2827E-02   -150.30  0.0000E+00      0.00
   40.00     40.00     -2.48  -999.99    -2.48      0.0000     -0.00 LINEAR  1.4133E-02   -152.76  0.0000E+00      0.00
   44.00     40.00     -1.74  -999.99    -1.74      0.0000     -0.00 LINEAR  1.5390E-02   -155.38  0.0000E+00      0.00
   48.00     40.00     -1.08  -999.99    -1.08      0.0000     -0.00 LINEAR  1.6589E-02   -158.15  0.0000E+00      0.00
   52.00     40.00     -0.51  -999.99    -0.51      0.0000     -0.00 LINEAR  1.7721E-02   -161.05  0.0000E+00      0.00
   56.00     40.00     -0.01  -999.99    -0.01      0.0000     -0.00 LINEAR  1.8775E-02   -164.06  0.0000E+00      0.00
   60.00     40.00      0.43  -999.99     0.43      0.0000     -0.00 LINEAR  1.9741E-02   -167.19  0.0000E+00      0.00
   64.00     40.00      0.80  -999.99     0.80      0.0000     -0.00 LINEAR  2.0610E-02   -170.40  0.0000E+00      0.00
   68.00     40.00      1.12  -999.99     1.12      0.0000     -0.00 LINEAR  2.1371E-02   -173.68  0.0000E+00      0.00
   72.00     40.00      1.37  -999.99     1.37      0.0000     -0.00 LINEAR  2.2016E-02   -177.02  0.0000E+00      0.00
   76.00     40.00      1.58  -999.99     1.58      0.0000     -0.00 LINEAR  2.2537E-02    179.59  0.0000E+00      0.00
   80.00     40.00      1.73  -999.99     1.73      0.0000     -0.00 LINEAR  2.2927E-02    176.19  0.0000E+00      0.00
   84.00     40.00      1.82  -999.99     1.82      0.0000     -0.00 LINEAR  2.3181E-02    172.78  0.0000E+00      0.00
   88.00     40.00      1.87  -999.99     1.87      0.0000     -0.00 LINEAR  2.3297E-02    169.38  0.0000E+00      0.00
   92.00     40.00      1.86  -999.99     1.86      0.0000     -0.00 LINEAR  2.3272E-02    166.01  0.0000E+00      0.00
   96.00     40.00      1.79  -999.99     1.79      0.0000     -0.00 LINEAR  2.3107E-02    162.68  0.0000E+00      0.00
  100.00     40.00      1.68  -999.99     1.68      0.0000     -0.00 LINEAR  2.2805E-02    159.41  0.0000E+00      0.00
  104.00     40.00      1.51  -999.99     1.51      0.0000     -0.00 LINEAR  2.2370E-02    156.23  0.0000E+00      0.00
  108.00     40.00      1.29  -999.99     1.29      0.0000     -0.00 LINEAR  2.1809E-02    153.14  0.0000E+00      0.00
  112.00     40.00      1.02  -999.99     1.02      0.0000     -0.00 LINEAR  2.1127E-02    150.16  0.0000E+00      0.00
  116.00     40.00      0.68  -999.99     0.68      0.0000     -0.00 LINEAR  2.0334E-02    147.30  0.0000E+00      0.00
  120.00     40.00      0.29  -999.99     0.29      0.0000     -0.00 LINEAR  1.9439E-02    144.59  0.0000E+00      0.00
  124.00     40.00     -0.16  -999.99    -0.16      0.0000     -0.00 LINEAR  1.8453E-02    142.03  0.0000E+00      0.00
  128.00     40.00     -0.68  -999.99    -0.68      0.0000     -0.00 LINEAR  1.7386E-02    139.63  0.0000E+00      0.00
  132.00     40.00     -1.26  -999.99    -1.26      0.0000     -0.00 LINEAR  1.6247E-02    137.41  0.0000E+00      0.00
  136.00     40.00     -1.93  -999.99    -1.93      0.0000     -0.00 LINEAR  1.5048E-02    135.38  0.0000E+00      0.00
  140.00     40.00     -2.68  -999.99    -2.68      0.0000     -0.00 LINEAR  1.3798E-02    133.54  0.0000E+00      0.00
  144.00     40.00     -3.54  -999.99    -3.54      0.0000     -0.00 LINEAR  1.2506E-02    131.91  0.0000E+00      0.00
  148.00     40.00     -4.51  -999.99    -4.51      0.0000     -0.00 LINEAR  1.1180E-02    130.49  0.0000E+00      0.00
  152.00     40.00     -5.63  -999.99    -5.63      0.0000     -0.00 LINEAR  9.8264E-03    129.29  0.0000E+00      0.00
  156.00     40.00     -6.94  -999.99    -6.94      0.0000     -0.00 LINEAR  8.4523E-03    128.31  0.0000E+00      0.00
  160.00     40.00     -8.50  -999.99    -8.50      0.0000     -0.00 LINEAR  7.0625E-03    127.56  0.0000E+00      0.00
  164.00     40.00    -10.42  -999.99   -10.42      0.0000     -0.00 LINEAR  5.6613E-03    127.04  0.0000E+00      0.00
  168.00     40.00    -12.91  -999.99   -12.91      0.0000     -0.00 LINEAR  4.2520E-03    126.75  0.0000E+00      0.00
  172.00     40.00    -16.42  -999.99   -16.42      0.0000     -0.00 LINEAR  2.8373E-03    126.70  0.0000E+00      0.00
  176.00     40.00    -22.44  -999.99   -22.44      0.0000     -0.00 LINEAR  1.4194E-03    126.88  0.0000E+00      0.00
  180.00     40.00   -999.99  -999.99  -999.99      0.0000      0.00         2.0756E-13    -52.71  0.0000E+00      0.00
    0.00     44.00   -999.99  -999.99  -999.99      0.0000      0.00         0.0000E+00      0.00  0.0000E+00      0.00
    4.00     44.00    -22.16  -999.99   -22.16      0.0000     -0.00 LINEAR  1.4651E-03   -137.03  0.0000E+00      0.00
    8.00     44.00    -16.15  -999.99   -16.15      0.0000     -0.00 LINEAR  2.9280E-03   -137.48  0.0000E+00      0.00
   12.00     44.00    -12.64  -999.99   -12.64      0.0000     -0.00 LINEAR  4.3860E-03   -138.16  0.0000E+00      0.00
   16.00     44.00    -10.16  -999.99   -10.16      0.0000     -0.00 LINEAR  5.8363E-03   -139.06  0.0000E+00      0.00
   20.00     44.00     -8.24  -999.99    -8.24      0.0000     -0.00 LINEAR  7.2755E-03   -140.18  0.0000E+00      0.00
   24.00     44.00     -6.69  -999.99    -6.69      0.0000     -0.00 LINEAR  8.6996E-03   -141.52  0.0000E+00      0.00
   28.00     44.00     -5.39  -999.99    -5.39      0.0000     -0.00 LINEAR  1.0104E-02   -143.07  0.0000E+00      0.00
   32.00     44.00     -4.28  -999.99    -4.28      0.0000     -0.00 LINEAR  1.1482E-02   -144.82  0.0000E+00      0.00
   36.00     44.00     -3.32  -999.99    -3.32      0.0000     -0.00 LINEAR  1.2827E-02   -146.76  0.0000E+00      0.00
   40.00     44.00     -2.48  -999.99    -2.48      0.0000     -0.00 LINEAR  1.4133E-02   -148.89  0.0000E+00      0.00
   44.00     44.00     -1.74  -999.99    -1.74      0.0000     -0.00 LINEAR  1.5390E-02   -151.20  0.0000E+00      0.00
   48.00     44.00     -1.08  -999.99    -1.08      0.0000     -0.00 LINEAR  1.6589E-02   -153.68  0.0000E+00      0.00
   52.00     44.00     -0.51  -999.99    -0.51      0.0000     -0.00 LINEAR  1.7721E-02   -156.31  0.0000E+00      0.00
   56.00     44.00     -0.01  -999.99    -0.01      0.0000     -0.00 LINEAR  1.8775E-02   -159.08  0.0000E+00      0.00
   60.00     44.00      0.43  -999.99     0.43      0.0000     -0.00 LINEAR  1.9741E-02   -161.98  0.0000E+00      0.00
   64.00     44.00      0.80  -999.99     0.80      0.0000     -0.00 LINEAR  2.0610E-02   -164.99  0.0000E+00      0.00
   68.00     44.00      1.12  -999.99     1.12      0.0000     -0.00 LINEAR  2.1371E-02   -168.11  0.0000E+00      0.00
   72.00     44.00      1.37  -999.99     1.37      0.0000     -0.00 LINEAR  2.2016E-02   -171.30  0.0000E+00      0.00
   76.00     44.00      1.58  -999.99     1.58      0.0000     -0.00 LINEAR  2.2537E-02   -174.57  0.0000E+00      0.00
   80.00     44.00      1.73  -999.99     1.73      0.0000     -0.00 LINEAR  2.2927E-02   -177.89  0.0000E+00      0.00
   84.00     44.00      1.82  -999.99     1.82      0.0000     -0.00 LINEAR  2.3181E-02    178.76  0.0000E+00      0.00
   88.00     44.00      1.87  -999.99     1.87      0.0000     -0.00 LINEAR  2.3297E-02    175.39  0.0000E+00      0.00
   92.00     44.00      1.86  -999.99     1.86      0.0000     -0.00 LINEAR  2.3272E-02    172.02  0.0000E+00      0.00
   96.00     44.00      1.79  -999.99     1.79      0.0000     -0.00 LINEAR  2.3107E-02    168.66  0.0000E+00      0.00
  100.00     44.00      1.68  -999.99     1.68      0.0000     -0.00 LINEAR  2.2805E-02    165.34  0.0000E+00      0.00
  104.00     44.00      1.51  -999.99     1.51      0.0000     -0.00 LINEAR  2.2370E-02    162.06  0.0000E+00      0.00
  108.00     44.00      1.29  -999.99     1.29      0.0000     -0.00 LINEAR  2.1809E-02    158.86  0.0000E+00      0.00
  112.00     44.00      1.02  -999.99     1.02      0.0000     -0.00 LINEAR  2.1127E-02    155.73  0.0000E+00      0.00
  116.00     44.00      0.68  -999.99     0.68      0.0000     -0.00 LINEAR  2.0334E-02    152.71  0.0000E+00      0.00
  120.00     44.00      0.29  -999.99     0.29      0.0000     -0.00 LINEAR  1.9439E-02    149.80  0.0000E+00      0.00
  124.00     44.00     -0.16  -999.99    -0.16      0.0000     -0.00 LINEAR  1.8453E-02    147.01  0.0000E+00      0.00
  128.00     44.00     -0.68  -999.99    -0.68      0.0000     -0.00 LINEAR  1.7386E-02    144.37  0.0000E+00      0.00
  132.00     44.00     -1.26  -999.99    -1.26      0.0000     -0.00 LINEAR  1.6247E-02    141.88  0.0000E+00      0.00
  136.00     44.00     -1.93  -999.99    -1.93      0.0000     -0.00 LINEAR  1.5048E-02    139.55  0.0000E+00      0.00
  140.00     44.00     -2.68  -999.99    -2.68      0.0000     -0.00 LINEAR  1.3798E-02    137.40  0.0000E+00      0.00
  144.00     44.00     -3.54  -999.99    -3.54      0.0000     -0.00 LINEAR  1.2506E-02    135.44  0.0000E+00      0.00
  148.00     44.00     -4.51  -999.99    -4.51      0.0000     -0.00 LINEAR  1.1180E-02    133.68  0.0000E+00      0.00
  152.00     44.00     -5.63  -999.99    -5.63      0.0000     -0.00 LINEAR  9.8264E-03    132.11  0.0000E+00      0.00
  156.00     44.00     -6.94  -999.99    -6.94      0.0000     -0.00 LINEAR  8.4523E-03    130.76  0.0000E+00      0.00
  160.00     44.00     -8.50  -999.99    -8.50      0.0000     -0.00 LINEAR  7.0625E-03    129.62  0.0000E+00      0.00
  164.00     44.00    -10.42  -999.99   -10.42      0.0000     -0.00 LINEAR  5.6613E-03    128.70  0.0000E+00      0.00
  168.00     44.00    -12.91  -999.99   -12.91      0.0000     -0.00 LINEAR  4.2520E-03    128.00  0.0000E+00      0.00
  172.00     44.00    -16.42  -999.99   -16.42      0.0000     -0.00 LINEAR  2.8373E-03    127.54  0.0000E+00      0.00
  176.00     44.00    -22.44  -999.99   -22.44      0.0000     -0.00 LINEAR  1.4194E-03    127.30  0.0000E+00      0.00
  180.00     44.00   -999.99  -999.99  -999.99      0.0000      0.00         2.0756E-13    -52.71  0.0000E+00      0.00
    0.00     48.00   -999.99  -999.99  -999.99      0.0000      0.00         0.0000E+00      0.00  0.0000E+00      0.00
    4.00     48.00    -22.16  -999.99   -22.16      0.0000     -0.00 LINEAR  1.4651E-03   -136.61  0.0000E+00      0.00
    8.00     48.00    -16.15  -999.99   -16.15      0.0000     -0.00 LINEAR  2.9280E-03   -136.65  0.0000E+00      0.00
   12.00     48.00    -12.64  -999.99   -12.64      0.0000     -0.00 LINEAR  4.3860E-03   -136.91  0.0000E+00      0.00
   16.00     48.00    -10.16  -999.99   -10.16      0.0000     -0.00 LINEAR  5.8363E-03   -137.40  0.0000E+00      0.00
   20.00     48.00     -8.24  -999.99    -8.24      0.0000     -0.00 LINEAR  7.2755E-03   -138.12  0.0000E+00      0.00
   24.00     48.00     -6.69  -999.99    -6.69      0.0000     -0.00 LINEAR  8.6996E-03   -139.07  0.0000E+00      0.00
   28.00     48.00     -5.39  -999.99    -5.39      0.0000     -0.00 LINEAR  1.0104E-02   -140.24  0.0000E+00      0.00
   32.00     48.00     -4.28  -999.99    -4.28      0.0000     -0.00 LINEAR  1.1482E-02   -141.63  0.0000E+00      0.00
   36.00     48.00     -3.32  -999.99    -3.32      0.0000     -0.00 LINEAR  1.2827E-02   -143.22  0.0000E+00      0.00
   40.00     48.00     -2.48  -999.99    -2.48      0.0000     -0.00 LINEAR  1.4133E-02   -145.02  0.0000E+00      0.00
   44.00     48.00     -1.74  -999.99    -1.74      0.0000     -0.00 LINEAR  1.5390E-02   -147.02  0.0000E+00      0.00
   48.00     48.00     -1.08  -999.99    -1.08      0.0000     -0.00 LINEAR  1.6589E-02   -149.20  0.0000E+00      0.00
   52.00     48.00     -0.51  -999.99    -0.51      0.0000     -0.00 LINEAR  1.7721E-02   -151.56  0.0000E+00      0.00
   56.00     48.00     -0.01  -999.99    -0.01      0.0000     -0.00 LINEAR  1.8775E-02   -154.09  0.0000E+00      0.00
   60.00     48.00      0.43  -999.99     0.43      0.0000     -0.00 LINEAR  1.9741E-02   -156.76  0.0000E+00      0.00
   64.00     48.00      0.80  -999.99     0.80      0.0000     -0.00 LINEAR  2.0610E-02   -159.58  0.0000E+00      0.00
   68.00     48.00      1.12  -999.99     1.12      0.0000     -0.00 LINEAR  2.1371E-02   -162.52  0.0000E+00      0.00
   72.00     48.00      1.37  -999.99     1.37      0.0000     -0.00 LINEAR  2.2016E-02   -165.58  0.0000E+00      0.00
   76.00     48.00      1.58  -999.99     1.58      0.0000     -0.00 LINEAR  2.2537E-02   -168.73  0.0000E+00      0.00
   80.00     48.00      1.73  -999.99     1.73      0.0000     -0.00 LINEAR  2.2927E-02   -171.96  0.0000E+00      0.00
   84.00     48.00      1.82  -999.99     1.82      0.0000     -0.00 LINEAR  2.3181E-02   -175.25  0.0000E+00      0.00
   88.00     48.00      1.87  -999.99     1.87      0.0000     -0.00 LINEAR  2.3297E-02   -178.60  0.0000E+00      0.00
   92.00     48.00      1.86  -999.99     1.86      0.0000     -0.00 LINEAR  2.3272E-02    178.03  0.0000E+00      0.00
   96.00     48.00      1.79  -999.99     1.79      0.0000     -0.00 LINEAR  2.3107E-02    174.65  0.0000E+00      0.00
  100.00     48.00      1.68  -999.99     1.68      0.0000     -0.00 LINEAR  2.2805E-02    171.27  0.0000E+00      0.00
  104.00     48.00      1.51  -999.99     1.51      0.0000     -0.00 LINEAR  2.2370E-02    167.91  0.0000E+00      0.00
  108.00     48.00      1.29  -999.99     1.29      0.0000     -0.00 LINEAR  2.1809E-02    164.58  0.0000E+00      0.00
  112.00     48.00      1.02  -999.99     1.02      0.0000     -0.00 LINEAR  2.1127E-02    161.32  0.0000E+00      0.00
  116.00     48.00      0.68  -999.99     0.68      0.0000     -0.00 LINEAR  2.0334E-02    158.12  0.0000E+00      0.00
  120.00     48.00      0.29  -999.99     0.29      0.0000     -0.00 LINEAR  1.9439E-02    155.01  0.0000E+00      0.00
  124.00     48.00     -0.16  -999.99    -0.16      0.0000     -0.00 LINEAR  1.8453E-02    152.00  0.0000E+00      0.00
  128.00     48.00     -0.68  -999.99    -0.68      0.0000     -0.00 LINEAR  1.7386E-02    149.11  0.0000E+00      0.00
  132.00     48.00     -1.26  -999.99    -1.26      0.0000     -0.00 LINEAR  1.6247E-02    146.35  0.0000E+00      0.00
  136.00     48.00     -1.93  -999.99    -1.93      0.0000     -0.00 LINEAR  1.5048E-02    143.74  0.0000E+00      0.00
  140.00     48.00     -2.68  -999.99    -2.68      0.0000     -0.00 LINEAR  1.3798E-02    141.27  0.0000E+00      0.00
  144.00     48.00     -3.54  -999.99    -3.54      0.0000     -0.00 LINEAR  1.2506E-02    138.98  0.0000E+00      0.00
  148.00     48.00     -4.51  -999.99    -4.51      0.0000     -0.00 LINEAR  1.1180E-02    136.87  0.0000E+00      0.00
  152.00     48.00     -5.63  -999.99    -5.63      0.0000     -0.00 LINEAR  9.8264E-03    134.94  0.0000E+00      0.00
  156.00     48.00     -6.94  -999.99    -6.94      0.0000     -0.00 LINEAR  8.4523E-03    133.21  0.0000E+00      0.00
  160.00     48.00     -8.50  -999.99    -8.50      0.0000     -0.00 LINEAR  7.0625E-03    131.68  0.0000E+00      0.00
  164.00     48.00    -10.42  -999.99   -10.42      0.0000     -0.00 LINEAR  5.6613E-03    130.36  0.0000E+00      0.00
  168.00     48.00    -12.91  -999.99   -12.91      0.0000     -0.00 LINEAR  4.2520E-03    129.26  0.0000E+00      0.00
  172.00     48.00    -16.42  -999.99   -16.42      0.0000     -0.00 LINEAR  2.8373E-03    128.37  0.0000E+00      0.00
  176.00     48.00    -22.44  -999.99   -22.44      0.0000     -0.00 LINEAR  1.4194E-03    127.72  0.0000E+00      0.00
  180.00     48.00   -999.99  -999.99  -999.99      0.0000      0.00         2.0756E-13    -52.71  0.0000E+00      0.00
    0.00     52.00   -999.99  -999.99  -999.99      0.0000      0.00         0.0000E+00      0.00  0.0000E+00      0.00
    4.00     52.00    -22.16  -999.99   -22.16      0.0000     -0.00 LINEAR  1.4651E-03   -136.20  0.0000E+00      0.00
    8.00     52.00    -16.15  -999.99   -16.15      0.0000     -0.00 LINEAR  2.9280E-03   -135.81  0.0000E+00      0.00
   12.00     52.00    -12.64  -999.99   -12.64      0.0000     -0.00 LINEAR  4.3860E-03   -135.66  0.0000E+00      0.00
   16.00     52.00    -10.16  -999.99   -10.16      0.0000     -0.00 LINEAR  5.8363E-03   -135.75  0.0000E+00      0.00
   20.00     52.00     -8.24  -999.99    -8.24      0.0000     -0.00 LINEAR  7.2755E-03   -136.07  0.0000E+00      0.00
   24.00     52.00     -6.69  -999.99    -6.69      0.0000     -0.00 LINEAR  8.6996E-03   -136.63  0.0000E+00      0.00
   28.00     52.00     -5.39  -999.99    -5.39      0.0000     -0.00 LINEAR  1.0104E-02   -137.42  0.0000E+00      0.00
   32.00     52.00     -4.28  -999.99    -4.28      0.0000     -0.00 LINEAR  1.1482E-02   -138.45  0.0000E+00      0.00
   36.00     52.00     -3.32  -999.99    -3.32      0.0000     -0.00 LINEAR  1.2827E-02   -139.70  0.0000E+00      0.00
   40.00     52.00     -2.48  -999.99    -2.48      0.0000     -0.00 LINEAR  1.4133E-02   -141.17  0.0000E+00      0.00
   44.00     52.00     -1.74  -999.99    -1.74      0.0000     -0.00 LINEAR  1.5390E-02   -142.85  0.0000E+00      0.00
   48.00     52.00     -1.08  -999.99    -1.08      0.0000     -0.00 LINEAR  1.6589E-02   -144.75  0.0000E+00      0.00
   52.00     52.00     -0.51  -999.99    -0.51      0.0000     -0.00 LINEAR  1.7721E-02   -146.84  0.0000E+00      0.00
   56.00     52.00     -0.01  -999.99    -0.01      0.0000     -0.00 LINEAR  1.8775E-02   -149.11  0.0000E+00      0.00
   60.00     52.00      0.43  -999.99     0.43      0.0000     -0.00 LINEAR  1.9741E-02   -151.57  0.0000E+00      0.00
   64.00     52.00      0.80  -999.99     0.80      0.0000     -0.00 LINEAR  2.0610E-02   -154.19  0.0000E+00      0.00
   68.00     52.00      1.12  -999.99     1.12      0.0000     -0.00 LINEAR  2.1371E-02   -156.96  0.0000E+00      0.00
   72.00     52.00      1.37  -999.99     1.37      0.0000     -0.00 LINEAR  2.2016E-02   -159.87  0.0000E+00      0.00
[...]
   76.00    344.00      1.58  -999.99     1.58      0.0000     -0.00 LINEAR  2.2537E-02    113.68  0.0000E+00      0.00
   80.00    344.00      1.73  -999.99     1.73      0.0000     -0.00 LINEAR  2.2927E-02    109.29  0.0000E+00      0.00
   84.00    344.00      1.82  -999.99     1.82      0.0000     -0.00 LINEAR  2.3181E-02    105.22  0.0000E+00      0.00
   88.00    344.00      1.87  -999.99     1.87      0.0000     -0.00 LINEAR  2.3297E-02    101.49  0.0000E+00      0.00
   92.00    344.00      1.86  -999.99     1.86      0.0000     -0.00 LINEAR  2.3272E-02     98.11  0.0000E+00      0.00
   96.00    344.00      1.79  -999.99     1.79      0.0000     -0.00 LINEAR  2.3107E-02     95.12  0.0000E+00      0.00
  100.00    344.00      1.68  -999.99     1.68      0.0000     -0.00 LINEAR  2.2805E-02     92.51  0.0000E+00      0.00
  104.00    344.00      1.51  -999.99     1.51      0.0000     -0.00 LINEAR  2.2370E-02     90.31  0.0000E+00      0.00
  108.00    344.00      1.29  -999.99     1.29      0.0000      0.00 LINEAR  2.1809E-02     88.53  0.0000E+00      0.00
  112.00    344.00      1.02  -999.99     1.02      0.0000      0.00 LINEAR  2.1127E-02     87.17  0.0000E+00      0.00
  116.00    344.00      0.68  -999.99     0.68      0.0000      0.00 LINEAR  2.0334E-02     86.25  0.0000E+00      0.00
  120.00    344.00      0.29  -999.99     0.29      0.0000      0.00 LINEAR  1.9439E-02     85.76  0.0000E+00      0.00
  124.00    344.00     -0.16  -999.99    -0.16      0.0000      0.00 LINEAR  1.8453E-02     85.71  0.0000E+00      0.00
  128.00    344.00     -0.68  -999.99    -0.68      0.0000      0.00 LINEAR  1.7386E-02     86.10  0.0000E+00      0.00
  132.00    344.00     -1.26  -999.99    -1.26      0.0000      0.00 LINEAR  1.6247E-02     86.92  0.0000E+00      0.00
  136.00    344.00     -1.93  -999.99    -1.93      0.0000      0.00 LINEAR  1.5048E-02     88.19  0.0000E+00      0.00
  140.00    344.00     -2.68  -999.99    -2.68      0.0000      0.00 LINEAR  1.3798E-02     89.87  0.0000E+00      0.00
  144.00    344.00     -3.54  -999.99    -3.54      0.0000     -0.00 LINEAR  1.2506E-02     91.98  0.0000E+00      0.00
  148.00    344.00     -4.51  -999.99    -4.51      0.0000     -0.00 LINEAR  1.1180E-02     94.49  0.0000E+00      0.00
  152.00    344.00     -5.63  -999.99    -5.63      0.0000     -0.00 LINEAR  9.8264E-03     97.40  0.0000E+00      0.00
  156.00    344.00     -6.94  -999.99    -6.94      0.0000     -0.00 LINEAR  8.4523E-03    100.68  0.0000E+00      0.00
  160.00    344.00     -8.50  -999.99    -8.50      0.0000     -0.00 LINEAR  7.0625E-03    104.33  0.0000E+00      0.00
  164.00    344.00    -10.42  -999.99   -10.42      0.0000     -0.00 LINEAR  5.6613E-03    108.32  0.0000E+00      0.00
  168.00    344.00    -12.91  -999.99   -12.91      0.0000     -0.00 LINEAR  4.2520E-03    112.63  0.0000E+00      0.00
  172.00    344.00    -16.42  -999.99   -16.42      0.0000     -0.00 LINEAR  2.8373E-03    117.24  0.0000E+00      0.00
  176.00    344.00    -22.44  -999.99   -22.44      0.0000     -0.00 LINEAR  1.4194E-03    122.14  0.0000E+00      0.00
  180.00    344.00   -999.99  -999.99  -999.99      0.0000      0.00         2.0756E-13    -52.71  0.0000E+00      0.00
    0.00    348.00   -999.99  -999.99  -999.99      0.0000      0.00         0.0000E+00      0.00  0.0000E+00      0.00
    4.00    348.00    -22.16  -999.99   -22.16      0.0000     -0.00 LINEAR  1.4651E-03   -141.98  0.0000E+00      0.00
    8.00    348.00    -16.15  -999.99   -16.15      0.0000     -0.00 LINEAR  2.9280E-03   -147.34  0.0000E+00      0.00
   12.00    348.00    -12.64  -999.99   -12.64      0.0000     -0.00 LINEAR  4.3860E-03   -152.89  0.0000E+00      0.00
   16.00    348.00    -10.16  -999.99   -10.16      0.0000     -0.00 LINEAR  5.8363E-03   -158.59  0.0000E+00      0.00
   20.00    348.00     -8.24  -999.99    -8.24      0.0000     -0.00 LINEAR  7.2755E-03   -164.41  0.0000E+00      0.00
   24.00    348.00     -6.69  -999.99    -6.69      0.0000     -0.00 LINEAR  8.6996E-03   -170.34  0.0000E+00      0.00
   28.00    348.00     -5.39  -999.99    -5.39      0.0000     -0.00 LINEAR  1.0104E-02   -176.33  0.0000E+00      0.00
   32.00    348.00     -4.28  -999.99    -4.28      0.0000     -0.00 LINEAR  1.1482E-02    177.64  0.0000E+00      0.00
   36.00    348.00     -3.32  -999.99    -3.32      0.0000     -0.00 LINEAR  1.2827E-02    171.59  0.0000E+00      0.00
   40.00    348.00     -2.48  -999.99    -2.48      0.0000     -0.00 LINEAR  1.4133E-02    165.57  0.0000E+00      0.00
   44.00    348.00     -1.74  -999.99    -1.74      0.0000     -0.00 LINEAR  1.5390E-02    159.58  0.0000E+00      0.00
   48.00    348.00     -1.08  -999.99    -1.08      0.0000     -0.00 LINEAR  1.6589E-02    153.67  0.0000E+00      0.00
   52.00    348.00     -0.51  -999.99    -0.51      0.0000     -0.00 LINEAR  1.7721E-02    147.87  0.0000E+00      0.00
   56.00    348.00     -0.01  -999.99    -0.01      0.0000     -0.00 LINEAR  1.8775E-02    142.19  0.0000E+00      0.00
   60.00    348.00      0.43  -999.99     0.43      0.0000     -0.00 LINEAR  1.9741E-02    136.67  0.0000E+00      0.00
   64.00    348.00      0.80  -999.99     0.80      0.0000     -0.00 LINEAR  2.0610E-02    131.33  0.0000E+00      0.00
   68.00    348.00      1.12  -999.99     1.12      0.0000     -0.00 LINEAR  2.1371E-02    126.21  0.0000E+00      0.00
   72.00    348.00      1.37  -999.99     1.37      0.0000     -0.00 LINEAR  2.2016E-02    121.32  0.0000E+00      0.00
   76.00    348.00      1.58  -999.99     1.58      0.0000     -0.00 LINEAR  2.2537E-02    116.69  0.0000E+00      0.00
   80.00    348.00      1.73  -999.99     1.73      0.0000     -0.00 LINEAR  2.2927E-02    112.34  0.0000E+00      0.00
   84.00    348.00      1.82  -999.99     1.82      0.0000     -0.00 LINEAR  2.3181E-02    108.30  0.0000E+00      0.00
   88.00    348.00      1.87  -999.99     1.87      0.0000     -0.00 LINEAR  2.3297E-02    104.58  0.0000E+00      0.00
   92.00    348.00      1.86  -999.99     1.86      0.0000     -0.00 LINEAR  2.3272E-02    101.21  0.0000E+00      0.00
   96.00    348.00      1.79  -999.99     1.79      0.0000     -0.00 LINEAR  2.3107E-02     98.20  0.0000E+00      0.00
  100.00    348.00      1.68  -999.99     1.68      0.0000     -0.00 LINEAR  2.2805E-02     95.57  0.0000E+00      0.00
  104.00    348.00      1.51  -999.99     1.51      0.0000     -0.00 LINEAR  2.2370E-02     93.32  0.0000E+00      0.00
  108.00    348.00      1.29  -999.99     1.29      0.0000     -0.00 LINEAR  2.1809E-02     91.48  0.0000E+00      0.00
  112.00    348.00      1.02  -999.99     1.02      0.0000     -0.00 LINEAR  2.1127E-02     90.05  0.0000E+00      0.00
  116.00    348.00      0.68  -999.99     0.68      0.0000      0.00 LINEAR  2.0334E-02     89.03  0.0000E+00      0.00
  120.00    348.00      0.29  -999.99     0.29      0.0000      0.00 LINEAR  1.9439E-02     88.44  0.0000E+00      0.00
  124.00    348.00     -0.16  -999.99    -0.16      0.0000      0.00 LINEAR  1.8453E-02     88.28  0.0000E+00      0.00
  128.00    348.00     -0.68  -999.99    -0.68      0.0000      0.00 LINEAR  1.7386E-02     88.54  0.0000E+00      0.00
  132.00    348.00     -1.26  -999.99    -1.26      0.0000      0.00 LINEAR  1.6247E-02     89.23  0.0000E+00      0.00
  136.00    348.00     -1.93  -999.99    -1.93      0.0000     -0.00 LINEAR  1.5048E-02     90.34  0.0000E+00      0.00
  140.00    348.00     -2.68  -999.99    -2.68      0.0000     -0.00 LINEAR  1.3798E-02     91.87  0.0000E+00      0.00
  144.00    348.00     -3.54  -999.99    -3.54      0.0000     -0.00 LINEAR  1.2506E-02     93.80  0.0000E+00      0.00
  148.00    348.00     -4.51  -999.99    -4.51      0.0000     -0.00 LINEAR  1.1180E-02     96.13  0.0000E+00      0.00
  152.00    348.00     -5.63  -999.99    -5.63      0.0000     -0.00 LINEAR  9.8264E-03     98.85  0.0000E+00      0.00
  156.00    348.00     -6.94  -999.99    -6.94      0.0000     -0.00 LINEAR  8.4523E-03    101.94  0.0000E+00      0.00
  160.00    348.00     -8.50  -999.99    -8.50      0.0000     -0.00 LINEAR  7.0625E-03    105.39  0.0000E+00      0.00
  164.00    348.00    -10.42  -999.99   -10.42      0.0000     -0.00 LINEAR  5.6613E-03    109.17  0.0000E+00      0.00
  168.00    348.00    -12.91  -999.99   -12.91      0.0000     -0.00 LINEAR  4.2520E-03    113.27  0.0000E+00      0.00
  172.00    348.00    -16.42  -999.99   -16.42      0.0000     -0.00 LINEAR  2.8373E-03    117.68  0.0000E+00      0.00
  176.00    348.00    -22.44  -999.99   -22.44      0.0000     -0.00 LINEAR  1.4194E-03    122.36  0.0000E+00      0.00
  180.00    348.00   -999.99  -999.99  -999.99      0.0000      0.00         2.0756E-13    -52.71  0.0000E+00      0.00
    0.00    352.00   -999.99  -999.99  -999.99      0.0000      0.00         0.0000E+00      0.00  0.0000E+00      0.00
    4.00    352.00    -22.16  -999.99   -22.16      0.0000     -0.00 LINEAR  1.4651E-03   -141.74  0.0000E+00      0.00
    8.00    352.00    -16.15  -999.99   -16.15      0.0000     -0.00 LINEAR  2.9280E-03   -146.86  0.0000E+00      0.00
   12.00    352.00    -12.64  -999.99   -12.64      0.0000     -0.00 LINEAR  4.3860E-03   -152.17  0.0000E+00      0.00
   16.00    352.00    -10.16  -999.99   -10.16      0.0000     -0.00 LINEAR  5.8363E-03   -157.64  0.0000E+00      0.00
   20.00    352.00     -8.24  -999.99    -8.24      0.0000     -0.00 LINEAR  7.2755E-03   -163.23  0.0000E+00      0.00
   24.00    352.00     -6.69  -999.99    -6.69      0.0000     -0.00 LINEAR  8.6996E-03   -168.93  0.0000E+00      0.00
   28.00    352.00     -5.39  -999.99    -5.39      0.0000     -0.00 LINEAR  1.0104E-02   -174.71  0.0000E+00      0.00
   32.00    352.00     -4.28  -999.99    -4.28      0.0000     -0.00 LINEAR  1.1482E-02    179.47  0.0000E+00      0.00
   36.00    352.00     -3.32  -999.99    -3.32      0.0000     -0.00 LINEAR  1.2827E-02    173.62  0.0000E+00      0.00
   40.00    352.00     -2.48  -999.99    -2.48      0.0000     -0.00 LINEAR  1.4133E-02    167.79  0.0000E+00      0.00
   44.00    352.00     -1.74  -999.99    -1.74      0.0000     -0.00 LINEAR  1.5390E-02    161.98  0.0000E+00      0.00
   48.00    352.00     -1.08  -999.99    -1.08      0.0000     -0.00 LINEAR  1.6589E-02    156.24  0.0000E+00      0.00
   52.00    352.00     -0.51  -999.99    -0.51      0.0000     -0.00 LINEAR  1.7721E-02    150.59  0.0000E+00      0.00
   56.00    352.00     -0.01  -999.99    -0.01      0.0000     -0.00 LINEAR  1.8775E-02    145.05  0.0000E+00      0.00
   60.00    352.00      0.43  -999.99     0.43      0.0000     -0.00 LINEAR  1.9741E-02    139.66  0.0000E+00      0.00
   64.00    352.00      0.80  -999.99     0.80      0.0000     -0.00 LINEAR  2.0610E-02    134.44  0.0000E+00      0.00
   68.00    352.00      1.12  -999.99     1.12      0.0000     -0.00 LINEAR  2.1371E-02    129.41  0.0000E+00      0.00
   72.00    352.00      1.37  -999.99     1.37      0.0000     -0.00 LINEAR  2.2016E-02    124.60  0.0000E+00      0.00
   76.00    352.00      1.58  -999.99     1.58      0.0000     -0.00 LINEAR  2.2537E-02    120.04  0.0000E+00      0.00
   80.00    352.00      1.73  -999.99     1.73      0.0000     -0.00 LINEAR  2.2927E-02    115.74  0.0000E+00      0.00
   84.00    352.00      1.82  -999.99     1.82      0.0000     -0.00 LINEAR  2.3181E-02    111.74  0.0000E+00      0.00
   88.00    352.00      1.87  -999.99     1.87      0.0000     -0.00 LINEAR  2.3297E-02    108.04  0.0000E+00      0.00
   92.00    352.00      1.86  -999.99     1.86      0.0000     -0.00 LINEAR  2.3272E-02    104.66  0.0000E+00      0.00
   96.00    352.00      1.79  -999.99     1.79      0.0000     -0.00 LINEAR  2.3107E-02    101.64  0.0000E+00      0.00
  100.00    352.00      1.68  -999.99     1.68      0.0000     -0.00 LINEAR  2.2805E-02     98.97  0.0000E+00      0.00
  104.00    352.00      1.51  -999.99     1.51      0.0000     -0.00 LINEAR  2.2370E-02     96.67  0.0000E+00      0.00
  108.00    352.00      1.29  -999.99     1.29      0.0000     -0.00 LINEAR  2.1809E-02     94.76  0.0000E+00      0.00
  112.00    352.00      1.02  -999.99     1.02      0.0000     -0.00 LINEAR  2.1127E-02     93.25  0.0000E+00      0.00
  116.00    352.00      0.68  -999.99     0.68      0.0000     -0.00 LINEAR  2.0334E-02     92.14  0.0000E+00      0.00
  120.00    352.00      0.29  -999.99     0.29      0.0000     -0.00 LINEAR  1.9439E-02     91.43  0.0000E+00      0.00
  124.00    352.00     -0.16  -999.99    -0.16      0.0000     -0.00 LINEAR  1.8453E-02     91.14  0.0000E+00      0.00
  128.00    352.00     -0.68  -999.99    -0.68      0.0000     -0.00 LINEAR  1.7386E-02     91.26  0.0000E+00      0.00
  132.00    352.00     -1.26  -999.99    -1.26      0.0000     -0.00 LINEAR  1.6247E-02     91.80  0.0000E+00      0.00
  136.00    352.00     -1.93  -999.99    -1.93      0.0000     -0.00 LINEAR  1.5048E-02     92.74  0.0000E+00      0.00
  140.00    352.00     -2.68  -999.99    -2.68      0.0000     -0.00 LINEAR  1.3798E-02     94.09  0.0000E+00      0.00
  144.00    352.00     -3.54  -999.99    -3.54      0.0000     -0.00 LINEAR  1.2506E-02     95.83  0.0000E+00      0.00
  148.00    352.00     -4.51  -999.99    -4.51      0.0000     -0.00 LINEAR  1.1180E-02     97.96  0.0000E+00      0.00
  152.00    352.00     -5.63  -999.99    -5.63      0.0000     -0.00 LINEAR  9.8264E-03    100.47  0.0000E+00      0.00
  156.00    352.00     -6.94  -999.99    -6.94      0.0000     -0.00 LINEAR  8.4523E-03    103.35  0.0000E+00      0.00
  160.00    352.00     -8.50  -999.99    -8.50      0.0000     -0.00 LINEAR  7.0625E-03    106.57  0.0000E+00      0.00
  164.00    352.00    -10.42  -999.99   -10.42      0.0000     -0.00 LINEAR  5.6613E-03    110.12  0.0000E+00      0.00
  168.00    352.00    -12.91  -999.99   -12.91      0.0000     -0.00 LINEAR  4.2520E-03    113.99  0.0000E+00      0.00
  172.00    352.00    -16.42  -999.99   -16.42      0.0000     -0.00 LINEAR  2.8373E-03    118.16  0.0000E+00      0.00
  176.00    352.00    -22.44  -999.99   -22.44      0.0000     -0.00 LINEAR  1.4194E-03    122.60  0.0000E+00      0.00
  180.00    352.00   -999.99  -999.99  -999.99      0.0000      0.00         2.0756E-13    -52.71  0.0000E+00      0.00
    0.00    356.00   -999.99  -999.99  -999.99      0.0000      0.00         0.0000E+00      0.00  0.0000E+00      0.00
    4.00    356.00    -22.16  -999.99   -22.16      0.0000     -0.00 LINEAR  1.4651E-03   -141.47  0.0000E+00      0.00
    8.00    356.00    -16.15  -999.99   -16.15      0.0000     -0.00 LINEAR  2.9280E-03   -146.34  0.0000E+00      0.00
   12.00    356.00    -12.64  -999.99   -12.64      0.0000     -0.00 LINEAR  4.3860E-03   -151.38  0.0000E+00      0.00
   16.00    356.00    -10.16  -999.99   -10.16      0.0000     -0.00 LINEAR  5.8363E-03   -156.59  0.0000E+00      0.00
   20.00    356.00     -8.24  -999.99    -8.24      0.0000     -0.00 LINEAR  7.2755E-03   -161.94  0.0000E+00      0.00
   24.00    356.00     -6.69  -999.99    -6.69      0.0000     -0.00 LINEAR  8.6996E-03   -167.39  0.0000E+00      0.00
   28.00    356.00     -5.39  -999.99    -5.39      0.0000     -0.00 LINEAR  1.0104E-02   -172.93  0.0000E+00      0.00
   32.00    356.00     -4.28  -999.99    -4.28      0.0000     -0.00 LINEAR  1.1482E-02   -178.52  0.0000E+00      0.00
   36.00    356.00     -3.32  -999.99    -3.32      0.0000     -0.00 LINEAR  1.2827E-02    175.85  0.0000E+00      0.00
   40.00    356.00     -2.48  -999.99    -2.48      0.0000     -0.00 LINEAR  1.4133E-02    170.22  0.0000E+00      0.00
   44.00    356.00     -1.74  -999.99    -1.74      0.0000     -0.00 LINEAR  1.5390E-02    164.61  0.0000E+00      0.00
   48.00    356.00     -1.08  -999.99    -1.08      0.0000     -0.00 LINEAR  1.6589E-02    159.06  0.0000E+00      0.00
   52.00    356.00     -0.51  -999.99    -0.51      0.0000     -0.00 LINEAR  1.7721E-02    153.57  0.0000E+00      0.00
   56.00    356.00     -0.01  -999.99    -0.01      0.0000     -0.00 LINEAR  1.8775E-02    148.19  0.0000E+00      0.00
   60.00    356.00      0.43  -999.99     0.43      0.0000     -0.00 LINEAR  1.9741E-02    142.94  0.0000E+00      0.00
   64.00    356.00      0.80  -999.99     0.80      0.0000     -0.00 LINEAR  2.0610E-02    137.84  0.0000E+00      0.00
   68.00    356.00      1.12  -999.99     1.12      0.0000     -0.00 LINEAR  2.1371E-02    132.92  0.0000E+00      0.00
   72.00    356.00      1.37  -999.99     1.37      0.0000     -0.00 LINEAR  2.2016E-02    128.21  0.0000E+00      0.00
   76.00    356.00      1.58  -999.99     1.58      0.0000     -0.00 LINEAR  2.2537E-02    123.72  0.0000E+00      0.00
   80.00    356.00      1.73  -999.99     1.73      0.0000     -0.00 LINEAR  2.2927E-02    119.48  0.0000E+00      0.00
   84.00    356.00      1.82  -999.99     1.82      0.0000     -0.00 LINEAR  2.3181E-02    115.50  0.0000E+00      0.00
   88.00    356.00      1.87  -999.99     1.87      0.0000     -0.00 LINEAR  2.3297E-02    111.82  0.0000E+00      0.00
   92.00    356.00      1.86  -999.99     1.86      0.0000     -0.00 LINEAR  2.3272E-02    108.45  0.0000E+00      0.00
   96.00    356.00      1.79  -999.99     1.79      0.0000     -0.00 LINEAR  2.3107E-02    105.40  0.0000E+00      0.00
  100.00    356.00      1.68  -999.99     1.68      0.0000     -0.00 LINEAR  2.2805E-02    102.70  0.0000E+00      0.00
  104.00    356.00      1.51  -999.99     1.51      0.0000     -0.00 LINEAR  2.2370E-02    100.35  0.0000E+00      0.00
  108.00    356.00      1.29  -999.99     1.29      0.0000     -0.00 LINEAR  2.1809E-02     98.37  0.0000E+00      0.00
  112.00    356.00      1.02  -999.99     1.02      0.0000     -0.00 LINEAR  2.1127E-02     96.76  0.0000E+00      0.00
  116.00    356.00      0.68  -999.99     0.68      0.0000     -0.00 LINEAR  2.0334E-02     95.54  0.0000E+00      0.00
  120.00    356.00      0.29  -999.99     0.29      0.0000     -0.00 LINEAR  1.9439E-02     94.71  0.0000E+00      0.00
  124.00    356.00     -0.16  -999.99    -0.16      0.0000     -0.00 LINEAR  1.8453E-02     94.28  0.0000E+00      0.00
  128.00    356.00     -0.68  -999.99    -0.68      0.0000     -0.00 LINEAR  1.7386E-02     94.25  0.0000E+00      0.00
  132.00    356.00     -1.26  -999.99    -1.26      0.0000     -0.00 LINEAR  1.6247E-02     94.61  0.0000E+00      0.00
  136.00    356.00     -1.93  -999.99    -1.93      0.0000     -0.00 LINEAR  1.5048E-02     95.37  0.0000E+00      0.00
  140.00    356.00     -2.68  -999.99    -2.68      0.0000     -0.00 LINEAR  1.3798E-02     96.52  0.0000E+00      0.00
  144.00    356.00     -3.54  -999.99    -3.54      0.0000     -0.00 LINEAR  1.2506E-02     98.06  0.0000E+00      0.00
  148.00    356.00     -4.51  -999.99    -4.51      0.0000     -0.00 LINEAR  1.1180E-02     99.97  0.0000E+00      0.00
  152.00    356.00     -5.63  -999.99    -5.63      0.0000     -0.00 LINEAR  9.8264E-03    102.25  0.0000E+00      0.00
  156.00    356.00     -6.94  -999.99    -6.94      0.0000     -0.00 LINEAR  8.4523E-03    104.89  0.0000E+00      0.00
  160.00    356.00     -8.50  -999.99    -8.50      0.0000     -0.00 LINEAR  7.0625E-03    107.86  0.0000E+00      0.00
  164.00    356.00    -10.42  -999.99   -10.42      0.0000     -0.00 LINEAR  5.6613E-03    111.17  0.0000E+00      0.00
  168.00    356.00    -12.91  -999.99   -12.91      0.0000     -0.00 LINEAR  4.2520E-03    114.78  0.0000E+00      0.00
  172.00    356.00    -16.42  -999.99   -16.42      0.0000     -0.00 LINEAR  2.8373E-03    118.68  0.0000E+00      0.00
  176.00    356.00    -22.44  -999.99   -22.44      0.0000     -0.00 LINEAR  1.4194E-03    122.86  0.0000E+00      0.00
  180.00    356.00   -999.99  -999.99  -999.99      0.0000      0.00         2.0756E-13    -52.71  0.0000E+00      0.00








*****  DATA CARD N0.   5 EN   0     0     0     0  0.00000E+00  0.00000E+00  0.00000E+00  0.00000E+00  0.00000E+00  0.00000E+00

  TOTAL RUN TIME: 30 msec